  49
  -81.5178497000000       0.108374845989661      !
 C         -6.9614192429        2.4146934619        0.8069667561
 C         -6.7846212754        1.2485284621        1.5327738883
 C         -5.7001792068        0.4283911330        1.2820302045
 C         -4.7873403978        0.7690862695        0.2884603249
 N         -3.6863039915       -0.0606850842        0.0287423352
 C         -3.7336696649       -1.4231249096       -0.1940071586
 C         -4.8307019584       -2.2696359562       -0.2659263078
 C         -4.5980333181       -3.6052727731       -0.5319930071
 C         -3.3087728600       -4.0942543222       -0.7319793998
 C         -2.2154586162       -3.2531457932       -0.6840234024
 C         -2.4239196660       -1.9062557415       -0.4177382393
 C         -1.5488339988       -0.7721189877       -0.3151740096
 C         -0.1749015542       -0.6192927246       -0.4138227957
 C          0.3793330378        0.6432487544       -0.2467409583
 C          1.8316550637        0.8352878498       -0.3506448806
 C          2.3580332799        1.9521879822       -1.0134004363
 N          3.6463349616        2.2157867490       -1.1534204617
 C          4.4702874725        1.3424572934       -0.6180332517
 O          5.8180557417        1.4716024881       -0.6654633741
 C          6.3229955199        0.3996083845       -0.0137630969
 N          7.6134256984        0.1994146829        0.1373912794
 C          7.9488976376       -0.8959067601        0.8032738714
 C          7.0381438436       -1.8072376881        1.3291065189
 C          5.6787919966       -1.5931357935        1.1668704600
 C          5.3005108173       -0.4539618357        0.4731545190
 C          4.0741147045        0.1704249264        0.0714131356
 C          2.7196924242       -0.0844988445        0.2046197590
 C         -0.4509485249        1.7366825350        0.0375350366
 C         -1.8189012155        1.6044962361        0.1506691688
 C         -2.3719819321        0.3462105469       -0.0449830142
 C         -4.9695005824        1.9378526480       -0.4446431692
 C         -6.0510213131        2.7570794151       -0.1788944652
 H         -7.8064921537        3.0551394565        1.0091085615
 H         -7.4896265808        0.9802019369        2.3054108690
 H         -5.5460560626       -0.4697436854        1.8613875061
 H         -5.8349472115       -1.8974756738       -0.1305602134
 H         -5.4351810648       -4.2850359908       -0.5906166027
 H         -3.1690797902       -5.1453412187       -0.9359978654
 H         -1.2178899132       -3.6287669231       -0.8551112513
 H          0.4518283927       -1.4692700262       -0.6385020501
 H          1.6968560278        2.6716705719       -1.4757576313
 H          9.0127415382       -1.0473071494        0.9198983937
 H          7.3960639041       -2.6749967264        1.8602550557
 H          4.9451398541       -2.2798251014        1.5626665215
 H          2.3616304861       -0.9523806473        0.7386687833
 H          0.0001665445        2.7041322074        0.1994218919
 H         -2.4360419942        2.4549378729        0.3975786702
 H         -4.2698742411        2.1897098999       -1.2275176048
 H         -6.1871760507        3.6635341544       -0.7497547723
  49
  -81.5178102100000       0.103939385730499      !
 C         -6.9952222795        2.3807849814        0.7823577341
 C         -5.9253479361        2.3656452277        1.6617526265
 C         -4.8312320341        1.5571301940        1.4151891576
 C         -4.7985335584        0.7626392293        0.2731649273
 N         -3.6876113766       -0.0546220858        0.0148128964
 C         -3.7290723323       -1.4015140833       -0.2888154959
 C         -4.8178030781       -2.2592468307       -0.3528258449
 C         -4.5761251161       -3.5860623302       -0.6526534026
 C         -3.2846880321       -4.0580550769       -0.8777973504
 C         -2.1956730665       -3.2141537248       -0.7937764882
 C         -2.4130793110       -1.8759905374       -0.4928460063
 C         -1.5411695509       -0.7505630366       -0.3034286710
 C         -0.1674385934       -0.5882571794       -0.3853141220
 C          0.3814157401        0.6689509320       -0.1647640954
 C          1.8339262221        0.8666341190       -0.2525092129
 C          2.3630316800        2.0214462404       -0.8454255953
 N          3.6516137564        2.2890150431       -0.9729911442
 C          4.4745111480        1.3785753357       -0.5016759771
 O          5.8224889062        1.5027958890       -0.5531779654
 C          6.3263202389        0.3846610758        0.0164848810
 N          7.6168571648        0.1650482540        0.1361168330
 C          7.9519298222       -0.9782571338        0.7159621434
 C          7.0403631717       -1.9193272378        1.1849091266
 C          5.6807781577       -1.6836593661        1.0576289151
 C          5.3027688616       -0.4937986598        0.4546900324
 C          4.0766868500        0.1654022349        0.1111753387
 C          2.7216543121       -0.0896971414        0.2387589531
 C         -0.4592362815        1.7523388351        0.1285358421
 C         -1.8281665834        1.6119360723        0.2183242489
 C         -2.3709067136        0.3507323982        0.0129952096
 C         -5.8719232334        0.7822564983       -0.6123299138
 C         -6.9663336424        1.5859325001       -0.3515194265
 H         -7.8494262583        3.0100927186        0.9803904157
 H         -5.9456247435        2.9808603015        2.5490719548
 H         -4.0045250336        1.5260526990        2.1089994080
 H         -5.8201372195       -1.9062396091       -0.1626962618
 H         -5.4069300074       -4.2738186649       -0.7102936692
 H         -3.1380642443       -5.1019436247       -1.1119611565
 H         -1.1937801486       -3.5831122749       -0.9536340133
 H          0.4627034184       -1.4247852824       -0.6476228242
 H          1.7042279027        2.7716877790       -1.2595042812
 H          9.0159157068       -1.1451735484        0.8075608778
 H          7.3979689196       -2.8268605957        1.6450568121
 H          4.9468991371       -2.3927236430        1.4114272893
 H          2.3637907526       -0.9890574467        0.7180640932
 H         -0.0180316937        2.7211998675        0.3076041387
 H         -2.4560236404        2.4631495270        0.4335091486
 H         -5.8351621108        0.1786348367       -1.5069267774
 H         -7.7961012484        1.5986744518       -1.0424385497
  49
  -81.5178068000000       0.103565002113612      !
 C         -6.9873641070        2.4589971131       -0.5398148134
 C         -6.9607978328        1.5353047879        0.4918174193
 C         -5.8691112480        0.7026338803        0.6543098193
 C         -4.7958008947        0.7860330920       -0.2273449210
 N         -3.6867726145       -0.0590208404       -0.0676281250
 C         -3.7302295916       -1.4331841106        0.0623748017
 C         -4.8196038775       -2.2907884466        0.0104571278
 C         -4.5801152551       -3.6449832845        0.1424287029
 C         -3.2902031998       -4.1428286877        0.3147092905
 C         -2.2005447862       -3.2962045101        0.3459677089
 C         -2.4157061341       -1.9305281788        0.2154545769
 C         -1.5430257575       -0.7903308334        0.1803863491
 C         -0.1706502101       -0.6390908740        0.2987504857
 C          0.3776490508        0.6366031416        0.2506724405
 C          1.8281682987        0.8233500214        0.3831543218
 C          2.3451581356        1.8898187972        1.1315323475
 N          3.6309577925        2.1412056333        1.3099630962
 C          4.4633115725        1.3046042570        0.7310224767
 O          5.8099747177        1.4250106073        0.8145881416
 C          6.3252743853        0.3949456424        0.1060628934
 N          7.6179924512        0.1973700717       -0.0270147036
 C          7.9646012965       -0.8564645304       -0.7514554453
 C          7.0626019387       -1.7285028151       -1.3533086522
 C          5.7006432811       -1.5166226184       -1.2107386186
 C          5.3106856481       -0.4201150338       -0.4574852718
 C          4.0778749082        0.1833107354       -0.0432770007
 C          2.7256399938       -0.0566543924       -0.2198818182
 C         -0.4614492542        1.7484656075        0.0887419824
 C         -1.8286953118        1.6200217358       -0.0364508897
 C         -2.3708357184        0.3425064624       -0.0007302733
 C         -4.8254637939        1.7109093623       -1.2664911495
 C         -5.9177123880        2.5454183172       -1.4153995004
 H         -7.8396638819        3.1101323848       -0.6610960641
 H         -7.7909325073        1.4678016441        1.1790906010
 H         -5.8345683033       -0.0050454458        1.4692196946
 H         -5.8205812081       -1.9151812780       -0.1392700374
 H         -5.4112583930       -4.3335986029        0.1076309193
 H         -3.1454007516       -5.2079390631        0.4161895845
 H         -1.1998756866       -3.6832741487        0.4655830174
 H          0.4582925686       -1.5020245940        0.4579345839
 H          1.6781976627        2.5757111910        1.6348159768
 H          9.0302006456       -1.0065010994       -0.8519893389
 H          7.4292816381       -2.5646238955       -1.9272391812
 H          4.9739397737       -2.1739648624       -1.6649203141
 H          2.3771719511       -0.8849339737       -0.8190901738
 H         -0.0198249196        2.7324754146        0.0424428824
 H         -2.4561742480        2.4910660769       -0.1488968065
 H         -3.9979417327        1.7607652063       -1.9585491634
 H         -5.9365249323        3.2615655313       -2.2235832575
  49
  -81.5177879500000       0.101519660836882      !
 C         -6.4047662608        2.5193322444        1.9078347473
 C         -6.4037101807        1.1675412655        2.2093488267
 C         -5.5014511816        0.3171895304        1.5975413167
 C         -4.5963697854        0.8184135665        0.6667054176
 N         -3.6805041840       -0.0415737823        0.0424609004
 C         -3.9889117804       -1.2330197160       -0.5855327427
 C         -5.2258586853       -1.8225230597       -0.8034337949
 C         -5.2561779590       -3.0211507112       -1.4900294961
 C         -4.0896567955       -3.6213717905       -1.9594146821
 C         -2.8585709794       -3.0275324678       -1.7668862671
 C         -2.8027192126       -1.8223417600       -1.0792817126
 C         -1.7294723222       -0.9367839479       -0.7232325448
 C         -0.3578981052       -0.9819864785       -0.9145431827
 C          0.4298687289        0.0434366224       -0.4065925323
 C          1.8869200516        0.0164700479       -0.5881298298
 C          2.4439101871       -0.3904820193       -1.8082862702
 N          3.7387173960       -0.4591857119       -2.0679037770
 C          4.5385314080       -0.1099263438       -1.0846821082
 O          5.8893228747       -0.1314075500       -1.1865892667
 C          6.3645583050        0.2852547448        0.0089299002
 N          7.6489924847        0.3863641592        0.2700815355
 C          7.9542804857        0.8072173059        1.4888539696
 C          7.0188782257        1.1342176682        2.4659082809
 C          5.6658767580        1.0261554740        2.1867510769
 C          5.3190238879        0.5875558311        0.9181390249
 C          4.1103481925        0.3265164599        0.1928030347
 C          2.7496364462        0.3884648726        0.4416320473
 C         -0.1692016914        1.0996586688        0.2939862956
 C         -1.5330214189        1.1684174694        0.4879159524
 C         -2.3183025167        0.1500068508       -0.0345695282
 C         -4.6023277307        2.1758286871        0.3600271767
 C         -5.5016931937        3.0199129649        0.9847757938
 H         -7.1080593414        3.1807975702        2.3904926641
 H         -7.1040689025        0.7734951115        2.9307571526
 H         -5.4819264648       -0.7333477413        1.8462310600
 H         -6.1367540260       -1.3563508561       -0.4592814443
 H         -6.2063774751       -3.5019332980       -1.6699479128
 H         -4.1558628711       -4.5599858063       -2.4889589462
 H         -1.9560760616       -3.4838751564       -2.1443156614
 H          0.0939941779       -1.8182174951       -1.4257524580
 H          1.8021880248       -0.6633779101       -2.6343210740
 H          9.0135807767        0.8855173315        1.6893423659
 H          7.3529533722        1.4700256422        3.4350494415
 H          4.9136016706        1.2717326019        2.9219486049
 H          2.3696724093        0.6928411150        1.4058109392
 H          0.4552790012        1.8939655716        0.6756224623
 H         -1.9709009394        1.9868479741        1.0390060814
 H         -3.9114534446        2.5582936705       -0.3764815778
 H         -5.5022859362        4.0725514358        0.7434766778
  49
  -81.5177821400000       0.100897421347471      !
 C         -6.4242616863        3.0737276438        0.6670902009
 C         -5.4873497973        2.7250863516        1.6257557032
 C         -4.5811368461        1.7107946662        1.3786540819
 C         -4.6017445883        1.0430818094        0.1576194301
 N         -3.6815811084        0.0151957581       -0.0965625261
 C         -3.9899382827       -1.2533423971       -0.5497721318
 C         -5.2267491231       -1.8164644491       -0.8294039600
 C         -5.2553631017       -3.1320097256       -1.2509345086
 C         -4.0874322308       -3.8797116933       -1.3853544983
 C         -2.8562336829       -3.3326716312       -1.0853402116
 C         -2.8021389440       -2.0117967877       -0.6603073395
 C         -1.7286173700       -1.1493812670       -0.2522790110
 C         -0.3570740427       -1.3206009631       -0.1561621884
 C          0.4300380728       -0.2537093545        0.2589000008
 C          1.8852410258       -0.4108744415        0.3786004248
 C          2.4277386674       -1.5837471968        0.9215863646
 N          3.7188962788       -1.8266328513        1.0706075987
 C          4.5299748347       -0.8727548914        0.6697760420
 O          5.8790693877       -0.9676259916        0.7480626566
 C          6.3684551845        0.1886777400        0.2461538251
 N          7.6556465478        0.4434718268        0.1660072298
 C          7.9753162841        1.6203547976       -0.3518427436
 C          7.0518622862        2.5613812460       -0.7970363770
 C          5.6959718951        2.2894006090       -0.7101688184
 C          5.3340910136        1.0641482256       -0.1718577618
 C          4.1169617683        0.3607479393        0.1097415859
 C          2.7595227689        0.5916342466       -0.0376508626
 C         -0.1687249838        0.9777502032        0.5590510108
 C         -1.5327632829        1.1662854724        0.4797220014
 C         -2.3182451937        0.0909678732        0.0877359511
 C         -5.5395078443        1.3983629757       -0.8072104857
 C         -6.4489117113        2.4067212955       -0.5464226692
 H         -7.1333940119        3.8630459041        0.8654168173
 H         -5.4668434992        3.2399387956        2.5748364487
 H         -3.8642137170        1.4200738099        2.1320226144
 H         -6.1392715384       -1.2518996115       -0.7112329900
 H         -6.2056182581       -3.5920875968       -1.4783659992
 H         -4.1525121487       -4.9039924708       -1.7205429177
 H         -1.9520574229       -3.9156766811       -1.1736818698
 H          0.0952152806       -2.2627038923       -0.4257057811
 H          1.7759276758       -2.3711213156        1.2734149258
 H          9.0366833680        1.8158754147       -0.4117626659
 H          7.3975825376        3.4969190898       -1.2074595887
 H          4.9526019457        2.9967639103       -1.0470625644
 H          2.3913005879        1.5068203943       -0.4774064975
 H          0.4559617179        1.7969050405        0.8836622070
 H         -1.9710717542        2.1256975838        0.7094812253
 H         -5.5413814491        0.8909856059       -1.7603471321
 H         -7.1755206145        2.6778810803       -1.2979041243
  49
  -81.5177678700000       9.938527164860185E-002 !
 C         -6.4218568941        3.1009680965        0.5073810693
 C         -6.6125898584        1.8834530389        1.1398838505
 C         -5.7056722395        0.8551856192        0.9617908959
 C         -4.6011750231        1.0392528121        0.1352458230
 N         -3.6818099179       -0.0033974538       -0.0542653221
 C         -3.9946282997       -1.3003433102       -0.4140738711
 C         -5.2276112831       -1.8618957167       -0.7132056385
 C         -5.2575641516       -3.1950020779       -1.0753515091
 C         -4.0930673752       -3.9565231331       -1.1483748647
 C         -2.8611101569       -3.3974450085       -0.8746810637
 C         -2.8056904699       -2.0588268088       -0.5094187982
 C         -1.7275223570       -1.1684330209       -0.1819795043
 C         -0.3554865524       -1.3347631099       -0.0859696648
 C          0.4336913757       -0.2508974705        0.2782022601
 C          1.8909058935       -0.3991138955        0.3829184799
 C          2.4472426248       -1.5597241364        0.9388698322
 N          3.7415668341       -1.7949879647        1.0710013213
 C          4.5421878815       -0.8448097198        0.6411767113
 O          5.8927048889       -0.9334603963        0.7000159949
 C          6.3695878848        0.2179195087        0.1752216458
 N          7.6543671369        0.4769882782        0.0736578437
 C          7.9617544656        1.6492879283       -0.4618278955
 C          7.0278697230        2.5817563520       -0.9029540716
 C          5.6744552852        2.3046097727       -0.7948811385
 C          5.3252034248        1.0836300486       -0.2391584162
 C          4.1153321445        0.3787392559        0.0695627084
 C          2.7545879082        0.6005410096       -0.0620401769
 C         -0.1677768072        0.9840726426        0.5589177514
 C         -1.5321609244        1.1689723800        0.4765823302
 C         -2.3145181636        0.0905348978        0.0867889530
 C         -4.4129076571        2.2615832156       -0.5031601901
 C         -5.3197220859        3.2872988386       -0.3105069241
 H         -7.1302483570        3.9026225679        0.6517453960
 H         -7.4682841686        1.7356022494        1.7821882548
 H         -5.8389391049       -0.0882342494        1.4699556882
 H         -6.1337347511       -1.2762408024       -0.6760978053
 H         -6.2053933568       -3.6564158660       -1.3102129222
 H         -4.1597177685       -4.9963396391       -1.4315250157
 H         -1.9567317604       -3.9824736778       -0.9456295052
 H          0.0942024184       -2.2897130681       -0.3106649694
 H          1.8050729046       -2.3423395021        1.3176003683
 H          9.0213638712        1.8480707790       -0.5393892629
 H          7.3634270615        3.5152833558       -1.3263204353
 H          4.9238053585        3.0055495459       -1.1283991002
 H          2.3755671582        1.5067110276       -0.5117495564
 H          0.4547797923        1.8076484930        0.8763389555
 H         -1.9753419294        2.1220965443        0.7226219978
 H         -3.5639799601        2.3951222604       -1.1570397815
 H         -5.1694284258        4.2336683615       -0.8085168062
  49
  -81.5177437800000       9.688377036802362E-002 !
 C         -6.3949394672        2.4968523206        1.9458782007
 C         -5.3129292054        1.9857166023        2.6431899439
 C         -4.4161522351        1.1401048164        2.0169697209
 C         -4.5943854248        0.8079619103        0.6773703943
 N         -3.6832879306       -0.0447897479        0.0363158355
 C         -4.0064690232       -1.1704639488       -0.6967619849
 C         -5.2471957144       -1.7438268680       -0.9351024357
 C         -5.2883563626       -2.8983853356       -1.6929577992
 C         -4.1273228872       -3.4803347103       -2.1974857391
 C         -2.8882084830       -2.9272563559       -1.9444173790
 C         -2.8213995928       -1.7662929487       -1.1854900126
 C         -1.7345722806       -0.9463916649       -0.7275699230
 C         -0.3617715348       -1.0025127583       -0.9066503985
 C          0.4356989292       -0.0145474187       -0.3420994621
 C          1.8924174186       -0.0399808728       -0.5247305483
 C          2.4464711379       -0.4225754459       -1.7544770012
 N          3.7398840212       -0.4734777309       -2.0237394386
 C          4.5426300353       -0.1271679118       -1.0419236307
 O          5.8924100171       -0.1228900647       -1.1569115326
 C          6.3713239007        0.2906305241        0.0380819195
 N          7.6559543202        0.4188903979        0.2856694523
 C          7.9654908943        0.8378961152        1.5039283754
 C          7.0339982020        1.1361125962        2.4937140112
 C          5.6807412819        0.9989253314        2.2290167365
 C          5.3292632285        0.5619407398        0.9610879140
 C          4.1185045177        0.2852169957        0.2447569747
 C          2.7589313085        0.3242660891        0.5049597899
 C         -0.1585119321        1.0252800345        0.3873878246
 C         -1.5226622052        1.1017707250        0.5747740675
 C         -2.3135714529        0.1016823287        0.0260889489
 C         -5.6788026834        1.3265832877       -0.0239101081
 C         -6.5757644437        2.1634447339        0.6138005999
 H         -7.0950254939        3.1539836669        2.4391306638
 H         -5.1707072641        2.2397924114        3.6831605144
 H         -3.5834235060        0.7218723163        2.5624949002
 H         -6.1509776558       -1.3099501411       -0.5347055987
 H         -6.2424225537       -3.3618288737       -1.8964781671
 H         -4.2026221584       -4.3810486938       -2.7882613335
 H         -1.9870330878       -3.3856202987       -2.3225923609
 H          0.0811339962       -1.8133238729       -1.4644702886
 H          1.8032602726       -0.6873628028       -2.5818172603
 H          9.0249763546        0.9398420257        1.6926060347
 H          7.3713510646        1.4730517153        3.4611734270
 H          4.9317523404        1.2222838054        2.9743627356
 H          2.3834823504        0.6095417619        1.4766797718
 H          0.4695177477        1.8069765471        0.7888232871
 H         -1.9596078648        1.9261866953        1.1179610324
 H         -5.8036858762        1.0814755735       -1.0680174143
 H         -7.4153140271        2.5637440153        0.0652723452
  49
  -81.5177626200000       9.883466536323648E-002 !
 C         -6.9296186041        2.3976298445        0.9353162357
 C         -6.7074938732        1.2335500222        1.6522655848
 C         -5.6331046703        0.4196729359        1.3446384607
 C         -4.7757693170        0.7654007192        0.3043730058
 N         -3.6817423689       -0.0565688294       -0.0062903453
 C         -3.7284317510       -1.4209711937       -0.2146968890
 C         -4.8239072941       -2.2716361988       -0.2532653668
 C         -4.5925003053       -3.6087529674       -0.5129062469
 C         -3.3062906977       -4.0948988872       -0.7383632698
 C         -2.2149752263       -3.2499261608       -0.7219588225
 C         -2.4221104943       -1.9015698152       -0.4620605017
 C         -1.5489793201       -0.7640578077       -0.3832974934
 C         -0.1761782190       -0.6101300029       -0.4930708958
 C          0.3778492543        0.6536836279       -0.3355576140
 C          1.8319836830        0.8402533390       -0.4226857097
 C          2.3770062207        1.9457888638       -1.0889278224
 N          3.6694262919        2.2028976729       -1.2027868126
 C          4.4777646619        1.3347860231       -0.6358476785
 O          5.8268198696        1.4594330621       -0.6514439359
 C          6.3121920840        0.3952880856        0.0275915661
 N          7.5977670562        0.1932292948        0.2139417421
 C          7.9126422965       -0.8939253222        0.9028846262
 C          6.9861695120       -1.7956404250        1.4179161903
 C          5.6320816698       -1.5797538015        1.2187194564
 C          5.2753906720       -0.4487845907        0.5004806465
 C          4.0615175512        0.1736065249        0.0600716191
 C          2.7037307689       -0.0748644480        0.1652254186
 C         -0.4519523238        1.7497817544       -0.0612014330
 C         -1.8188756452        1.6165569648        0.0638145393
 C         -2.3706429399        0.3543859240       -0.1088164549
 C         -5.0034228284        1.9315526542       -0.4196760435
 C         -6.0751466050        2.7440571167       -0.0981907610
 H         -7.7668568262        3.0331361008        1.1814961044
 H         -7.3694288524        0.9613869894        2.4610593316
 H         -5.4432325861       -0.4777244046        1.9144593069
 H         -5.8257607155       -1.9011810513       -0.0966454072
 H         -5.4281005388       -4.2921595940       -0.5455773329
 H         -3.1675538952       -5.1471809027       -0.9368780946
 H         -1.2201800492       -3.6236917599       -0.9123254433
 H          0.4505657429       -1.4610001902       -0.7143272695
 H          1.7291435197        2.6613618187       -1.5756143056
 H          8.9726603411       -1.0471716385        1.0480696522
 H          7.3278212258       -2.6571934769        1.9694878214
 H          4.8861755740       -2.2579841524        1.6060060558
 H          2.3299284039       -0.9338086332        0.7029371027
 H         -0.0008841713        2.7196191140        0.0861095461
 H         -2.4357540838        2.4685933894        0.3058514652
 H         -4.3464913628        2.1873212156       -1.2376531588
 H         -6.2478732967        3.6483684494       -0.6625812619
  49
  -81.5177403000000       9.652765024650016E-002 !
 C         -6.9406672180        2.3543594300        1.0082165915
 C         -5.8120439974        2.3333383511        1.8106594523
 C         -4.7325763293        1.5378745431        1.4745712322
 C         -4.7740589621        0.7622105429        0.3197274103
 N         -3.6800728109       -0.0472516034       -0.0215675054
 C         -3.7339324604       -1.3946773108       -0.3216740961
 C         -4.8245900825       -2.2519287424       -0.3485675186
 C         -4.5948363371       -3.5779907438       -0.6611803879
 C         -3.3127243451       -4.0506254895       -0.9333866938
 C         -2.2205934190       -3.2080807269       -0.8837413745
 C         -2.4263005538       -1.8706866967       -0.5715030383
 C         -1.5464135036       -0.7472482503       -0.4099691542
 C         -0.1737319826       -0.5908485460       -0.5181930782
 C          0.3825000400        0.6651580486       -0.3125219183
 C          1.8374195062        0.8508597498       -0.3892827430
 C          2.3886065486        1.9743335489       -1.0195615642
 N          3.6822157909        2.2314808925       -1.1184445103
 C          4.4854769210        1.3449510253       -0.5733473057
 O          5.8347398672        1.4681455226       -0.5760379525
 C          6.3141476230        0.3833891121        0.0739502414
 N          7.5981227484        0.1753198196        0.2649627439
 C          7.9070707680       -0.9318063708        0.9241312471
 C          6.9760208837       -1.8477898789        1.4044207995
 C          5.6236483290       -1.6254209938        1.2003980195
 C          5.2731331673       -0.4736201409        0.5130859212
 C          4.0629999963        0.1634310721        0.0834494368
 C          2.7040283816       -0.0847836563        0.1733940048
 C         -0.4479704165        1.7561051413       -0.0200335160
 C         -1.8147148029        1.6196915203        0.1041904563
 C         -2.3637909858        0.3567110220       -0.0718576473
 C         -5.9056138879        0.7894369686       -0.4894643341
 C         -6.9845085983        1.5801745038       -0.1391991852
 H         -7.7835473096        2.9731262985        1.2762364456
 H         -5.7743713468        2.9335440574        2.7076190497
 H         -3.8598534073        1.5006051674        2.1093971833
 H         -5.8193330115       -1.8999816507       -0.1206434397
 H         -5.4276500383       -4.2650417267       -0.6896071873
 H         -3.1756276621       -5.0936813714       -1.1765998957
 H         -1.2251388639       -3.5767310858       -1.0805532257
 H          0.4505347858       -1.4309204007       -0.7835319166
 H          1.7452481614        2.7067161926       -1.4869241202
 H          8.9658121327       -1.0891827378        1.0745689899
 H          7.3129063967       -2.7254476688        1.9330121268
 H          4.8744999926       -2.3153319621        1.5599117905
 H          2.3251231862       -0.9588141273        0.6823979401
 H          0.0014681757        2.7252653063        0.1362438411
 H         -2.4360827988        2.4739413957        0.3262491847
 H         -5.9273234820        0.2014738549       -1.3948029984
 H         -7.8606714416        1.5977822927       -0.7701734516
  49
  -81.5176748900000       9.007232635551257E-002 !
 C         -7.0096792558        2.4069393153        0.6335379944
 C         -5.9977486306        2.3697188004        1.5783701097
 C         -4.9001940860        1.5491480471        1.3931845303
 C         -4.8074887945        0.7636473144        0.2485880933
 N         -3.6912052861       -0.0632901499        0.0474989487
 C         -3.7285103277       -1.4070518183       -0.2682786277
 C         -4.8191770885       -2.2576047403       -0.3777000434
 C         -4.5741004624       -3.5832781000       -0.6800357551
 C         -3.2778288051       -4.0607845324       -0.8624559250
 C         -2.1879422686       -3.2231079010       -0.7365593555
 C         -2.4087135917       -1.8855951130       -0.4350341727
 C         -1.5392435226       -0.7628632142       -0.2191066144
 C         -0.1648499403       -0.5984928934       -0.2847881725
 C          0.3798794874        0.6596484238       -0.0583076433
 C          1.8300691179        0.8659647641       -0.1617890207
 C          2.3407877527        2.0338752532       -0.7457223670
 N          3.6246477951        2.3093624731       -0.9000421530
 C          4.4622583496        1.3927517025       -0.4683844635
 O          5.8079271133        1.5211112407       -0.5565028548
 C          6.3297701874        0.3912068528       -0.0279320894
 N          7.6234759788        0.1695530854        0.0440670087
 C          7.9770227421       -0.9876943498        0.5838989859
 C          7.0810386826       -1.9405947205        1.0588021022
 C          5.7180348539       -1.7023626048        0.9825658458
 C          5.3207810033       -0.4979998979        0.4223897253
 C          4.0840382437        0.1665168233        0.1306244356
 C          2.7335090168       -0.0954248335        0.2896167470
 C         -0.4651608621        1.7388704525        0.2391282240
 C         -1.8348475706        1.5970151358        0.3114890227
 C         -2.3742067488        0.3382870021        0.0838125952
 C         -5.8234011186        0.8036399314       -0.7016291467
 C         -6.9207329186        1.6208933564       -0.5034685563
 H         -7.8659204028        3.0470677230        0.7829492946
 H         -6.0665840329        2.9768129437        2.4688448668
 H         -4.1175264982        1.5025400285        2.1357346344
 H         -5.8255985400       -1.8992482294       -0.2216490571
 H         -5.4059437261       -4.2656604615       -0.7735475101
 H         -3.1286280747       -5.1038014586       -1.0987089095
 H         -1.1830842008       -3.5961496017       -0.8657938475
 H          0.4681437126       -1.4334055377       -0.5452138177
 H          1.6697942050        2.7877504359       -1.1326345636
 H          9.0433726394       -1.1565468636        0.6358980467
 H          7.4532563525       -2.8595481360        1.4833312830
 H          4.9960510269       -2.4207597008        1.3418493188
 H          2.3918573504       -1.0046338622        0.7620917047
 H         -0.0272565643        2.7066359529        0.4315852951
 H         -2.4663195781        2.4455859226        0.5266322855
 H         -5.7385663396        0.2045119711       -1.5961057261
 H         -7.7051355754        1.6509824091       -1.2450951041
