75
 energy: -122.400973709756 gnorm: 0.000036217133 xtb: 6.7.1 (edcfbbe)
C           -9.65688353580763       -1.01964748538941       -0.31646068120358
C           -9.37980673315200        0.08757403768174        0.47160808841922
C           -8.06908509800995        0.51288697375580        0.59343650904239
C           -7.06519615616814       -0.18685399836051       -0.08096107512499
C           -5.64932868114675        0.20420473261904        0.00922835916420
C           -5.27329367431384        1.52664413280298        0.22512076708235
C           -3.92719566561099        1.88299567811033        0.31529187415755
C           -3.57692746919596        3.29479190441468        0.53631854199046
C           -2.33528610592184        3.82194990239871        0.17061019127500
C           -2.07459442046944        5.15835549991794        0.41412756262789
C           -3.05479501742195        5.93775789413382        1.01022583445124
C           -4.26156034233099        5.33018568570647        1.32202245660433
N           -4.51880853337087        4.05633646940011        1.09528969309352
C           -2.95677855353203        0.89590802322408        0.20637489911307
C           -3.31783864178920       -0.43206841760252       -0.01968287796515
C           -2.29143070417968       -1.45665978319391       -0.13800868814574
N           -1.02847934892392       -1.11957214275425        0.00869256586254
C           -0.02825140522005       -1.99846497841556       -0.11582987921904
C            1.30101439165716       -1.44358933016655       -0.10843423413696
C            2.37603821676867       -2.00896275881838       -0.81747874479219
C            3.62227153148191       -1.42640148181659       -0.79854415899430
C            3.84085199743561       -0.25299929394860       -0.07761495375557
N            5.13377269131432        0.33393963720176       -0.05068476070331
C            6.16531056133671       -0.28198537215815        0.63980859375448
C            5.97207220769988       -1.45258509160677        1.37207790336373
C            7.02621382514017       -2.04254697728409        2.04459015019175
C            8.29069564531484       -1.47590323218956        2.00680622758312
C            8.49839267417241       -0.30190213671561        1.30223366098390
C            7.44749198534148        0.29695513813861        0.62647907391723
O            7.70905999485502        1.46398874392358       -0.03573996428113
C            6.67816418655366        2.06659060781567       -0.70149004004383
C            6.95604865438468        3.24888755750545       -1.36827338020674
C            5.95771271920542        3.89759046835704       -2.07560288516181
C            4.68337028183136        3.35449256300849       -2.12392960988467
C            4.39694555322699        2.17480277295481       -1.46194178837259
C            5.38341102161385        1.51640766692349       -0.72890970923344
C            2.77839432133791        0.34559669614209        0.60127258975508
C            1.53368806475765       -0.23370140911131        0.57684493687177
C           -0.33802136453858       -3.40150438944318       -0.26049087925897
C            0.56080909177656       -4.45920622046393       -0.16284835209232
C            0.13928249564134       -5.76806977013924       -0.34889189741095
C           -1.19205802017051       -6.03874265870390       -0.62089304820975
C           -2.12148479076085       -5.01541284741226       -0.65337112943243
C           -1.72576389560817       -3.68855663266452       -0.44541289546892
N           -2.65001376725485       -2.71522861041289       -0.39701282118517
C           -4.66518927100272       -0.76857281758967       -0.12745672113238
N           -7.33823188909327       -1.25939610333247       -0.82385767038670
C           -8.59166405284919       -1.65542389719934       -0.93637623743475
H          -10.66510314815547       -1.38250790936445       -0.44159609544931
H          -10.17426108335929        0.60935338426002        0.98623357144388
H           -7.82044083937738        1.35869029308319        1.21470913442435
H           -6.00985197267079        2.31038875438937        0.30315076629723
H           -1.59809885246918        3.19981259824631       -0.31153427467652
H           -1.12175579696794        5.58802407961097        0.13907377951348
H           -2.89214375878697        6.98330027728526        1.22012739320382
H           -5.06863175734472        5.88943719766128        1.77985210284022
H           -1.90729059958103        1.12464737044490        0.30524856349576
H            2.21290124410705       -2.88150379846583       -1.43050643792078
H            4.43650064664233       -1.86614851212552       -1.35655190949861
H            4.98806487164378       -1.89161751992792        1.41125709721658
H            6.85489113240703       -2.94948927813720        2.60307944799341
H            9.11249878812767       -1.93893861273930        2.52927305999341
H            9.46705227614448        0.17034957577348        1.26459171948748
H            7.96018462719431        3.63911255879658       -1.32177061824272
H            6.17945933303884        4.81817246447977       -2.59146443915225
H            3.90422980206600        3.84844588876713       -2.68320734785965
H            3.40696407279844        1.75055951236674       -1.51173159863977
H            2.94627495649648        1.25992205646843        1.15188988459673
H            0.70961606923803        0.21918372625315        1.10621385178531
H            1.59043948727222       -4.26593083659218        0.09591137742460
H            0.85360313500382       -6.57459909113705       -0.27401441445156
H           -1.51485210286428       -7.05671900121796       -0.78466461243549
H           -3.16743230346226       -5.21200343615590       -0.83216054080208
H           -4.94470261767827       -1.79418924442345       -0.30873735959256
H           -8.74495288791257       -2.52970954512171       -1.55754764725568
