75
 energy: -122.465405036003 gnorm: 0.000080001616 xtb: 6.7.1 (edcfbbe)
C           -9.68945948000457       -1.05971504598004       -0.23548731099599
C           -9.42277669167337        0.12810505861728        0.42866620831229
C           -8.11396413768739        0.56838987798622        0.51693026092554
C           -7.10233467891247       -0.19775881590554       -0.06696465387855
C           -5.68747422617960        0.20551965594512       -0.01419141052940
C           -5.31300650723311        1.54149218664223        0.08671681498130
C           -3.96976260493488        1.91030260893871        0.13929869409180
C           -3.62621000842462        3.33793738321587        0.24296516795136
C           -2.38533290738772        3.83912654472346       -0.15824654830144
C           -2.13473237751303        5.19359316531700       -0.02776578433614
C           -3.12284962403242        6.01394669311761        0.49525669821548
C           -4.32792874404258        5.42719225405378        0.85156430658169
N           -4.57616167606904        4.13738073645140        0.73083886658389
C           -2.99431409275334        0.92056519626581        0.10163682879161
C           -3.35536442467267       -0.41961105089209       -0.01137475472089
C           -2.31647994871184       -1.45374895834560       -0.05785816109672
N           -1.03915135745169       -1.02823208629485        0.01437907517155
C           -0.07129141369017       -1.91470455244990       -0.01738076250019
C            1.29572501214611       -1.37539587703598       -0.02234789663220
C            2.26034681408065       -1.84329111332720       -0.91293387515170
C            3.52832958724019       -1.29612608311474       -0.91976743097498
C            3.85731967432709       -0.27680455437662       -0.03001049887469
N            5.15651541422461        0.27615756774966       -0.03282360852481
C            6.26303109416414       -0.50962030868238        0.29817058898382
C            6.14028645935712       -1.83488275611706        0.69797369559088
C            7.25942757045057       -2.58719032513388        1.02187007259097
C            8.51902296709699       -2.02595116225739        0.96341354877761
C            8.65693825089639       -0.69496780292686        0.59573995690585
C            7.54379388467081        0.05885123847026        0.27319521028146
O            7.75920850144170        1.37845553808413       -0.05155873923625
C            6.65754818530095        2.13977552999504       -0.36845973133598
C            6.88741084489918        3.46164755653506       -0.70196041931176
C            5.83155339978424        4.28683077530628       -1.06211013257575
C            4.55119254470304        3.77295877329358       -1.10171124442151
C            4.31576322840194        2.44779736869338       -0.76699590446309
C            5.35766856663809        1.61595024576272       -0.37486387047548
C            2.89312378166804        0.20070007450715        0.85463999651803
C            1.62226432658778       -0.33650664040647        0.84762652589436
C           -0.34926871238393       -3.31131136857896       -0.04862469093849
C            0.60433542902733       -4.34025234922226        0.06284512392600
C            0.21061060726893       -5.64960231598273       -0.00359837324393
C           -1.14262798631688       -5.98333033360129       -0.17773812897418
C           -2.09848074249482       -5.00864361701794       -0.25249813152704
C           -1.72640559597821       -3.65027465216823       -0.16972313045775
N           -2.68559255821424       -2.70578930563010       -0.18972687231125
C           -4.69878103597223       -0.77208274428974       -0.07698521912386
N           -7.36517245799764       -1.34773976961814       -0.68778041016629
C           -8.61607931896505       -1.75835828136192       -0.76817474768833
H          -10.69579808162512       -1.43629878522119       -0.33141612000660
H          -10.22352730629677        0.70157964751507        0.87362212548583
H           -7.87531092627107        1.47782112144804        1.04502202208015
H           -6.05103298901390        2.32770075911568        0.10663800116800
H           -1.64036189026486        3.18426036531156       -0.58117607858763
H           -1.18289104027702        5.60458783383449       -0.33275888558759
H           -2.96744146071171        7.07450730528578        0.61641088846914
H           -5.14048397120007        6.01805038647905        1.25672289554011
H           -1.94539015822157        1.15981349689776        0.17086738288758
H            2.00522009138074       -2.61047592436638       -1.62892198350480
H            4.27029745849492       -1.65045678993782       -1.62001216893583
H            5.16070931274735       -2.28123339152720        0.76331839767633
H            7.13360431132465       -3.61563020696376        1.32391946590757
H            9.39370748652681       -2.60693043906972        1.21016096981056
H            9.62428890970969       -0.21888996823723        0.55804852342665
H            7.90292302570193        3.82498331980833       -0.67828854413081
H            6.02058903147091        5.31767759492183       -1.31736034997679
H            3.72164969283741        4.39679882457345       -1.39740333924495
H            3.31244361812452        2.05553264644343       -0.81800774720120
H            3.14801361102823        0.99282697817273        1.54292736866946
H            0.86920011853079        0.02965745089781        1.52854296462752
H            1.64158841345026       -4.08560129990544        0.22023160215602
H            0.94250254542303       -6.43880063868297        0.08323309066673
H           -1.42566272821099       -7.02414310461028       -0.23467647131924
H           -3.14691850470767       -5.24028007709325       -0.35656605173808
H           -4.97503493469457       -1.80953422939298       -0.17135615630356
H           -8.76110048023094       -2.69738853810900       -1.28840351841617
