75
 energy: -122.400973010168 gnorm: 0.000058513253 xtb: 6.7.1 (edcfbbe)
C           -9.67365775920281       -0.87134190095641       -0.28622807646981
C           -9.38188152832838        0.26464076344087        0.45410986862950
C           -8.06466319378021        0.67210318046066        0.56642376878649
C           -7.06897158395511       -0.07302231022220       -0.07049037335768
C           -5.64682763054190        0.29669678724820        0.01037318203989
C           -5.24726905332515        1.61794889405870        0.18854443188189
C           -3.89512978802561        1.95283620267658        0.26972816426236
C           -3.51975910782754        3.36376498083766        0.45236425579029
C           -2.26949011200287        3.85890455952016        0.07166668051244
C           -1.98374781855369        5.19574623068892        0.28235345649472
C           -2.94826010021368        6.00737240614345        0.86077798790723
C           -4.16565856804241        5.43012961140410        1.18844833013178
N           -4.44669410434255        4.15607606087809        0.99325631530039
C           -2.94207198096643        0.94643948409376        0.18814061857726
C           -3.32654457205815       -0.38090094702620        0.00003272695666
C           -2.31844342415483       -1.42617416778325       -0.09052762267234
N           -1.04895820338344       -1.10559295365539        0.03552614100636
C           -0.06414660557466       -2.00412871168044       -0.06908647201031
C            1.27405033012013       -1.47057718747995       -0.08096615665694
C            2.33620079379593       -2.06740537174483       -0.78340659005461
C            3.59189583570685       -1.50497414305165       -0.78164318548808
C            3.83325431112796       -0.32186628688491       -0.08415575619511
N            5.13500429086090        0.24499142703385       -0.07290213536619
C            6.16309114100650       -0.37936524730932        0.61561501245585
C            5.96125895740226       -1.54475651569755        1.35393161699949
C            7.01240783397364       -2.14328957951231        2.02357425688051
C            8.28259636799721       -1.59027309214752        1.97755662989466
C            8.49899255376813       -0.42111217781259        1.26765052028338
C            7.45121044889195        0.18603937395409        0.59443393508087
O            7.72210048353604        1.34829506685390       -0.07234513595109
C            6.69492696927497        1.95923598664094       -0.73612061554906
C            6.98243784796878        3.13682008235866       -1.40716931132162
C            5.98850765636904        3.79324231679060       -2.11352193157397
C            4.70910572687993        3.26183010175982       -2.15737611304140
C            4.41309630633063        2.08703273147670       -1.49094432890627
C            5.39467603557126        1.42196570483397       -0.75726547018410
C            2.78365239692342        0.30726306276849        0.58736073672710
C            1.52943766643036       -0.25139592248341        0.57904829772407
C           -0.39704872017213       -3.40548210706630       -0.16987828426626
C            0.48665824943170       -4.47368088149428       -0.05024135051936
C            0.04155040114448       -5.78137007864960       -0.18188420420191
C           -1.29803945938657       -6.03980986329038       -0.42336915581228
C           -2.21134527236439       -5.00306991600328       -0.48027555906011
C           -1.79154505405254       -3.67619285527177       -0.32704092144909
N           -2.69963799042463       -2.68680172969228       -0.30302826809813
C           -4.67959474229023       -0.69660137257711       -0.09770979115890
N           -7.35664777842758       -1.17230565229575       -0.76758389103191
C           -8.61588026759128       -1.55193476435481       -0.87033387569588
H          -10.68732469290065       -1.22186525170887       -0.40221461885052
H          -10.17018996206962        0.82240987776575        0.93962987227174
H           -7.80566976638641        1.53972192981645        1.15231359019616
H           -5.96933449481536        2.41687797836243        0.24412503921932
H           -1.54492086680205        3.21173298601196       -0.39644366223450
H           -1.02370083494102        5.60102824840741       -0.00434531896914
H           -2.76557048373610        7.05441184933689        1.04515768053330
H           -4.96171650415926        6.01531126233648        1.63298213220433
H           -1.88866193043997        1.15961209691245        0.28003622891094
H            2.15585345527113       -2.94921485969041       -1.37814562495638
H            4.39589043362476       -1.96875772245497       -1.33502451028977
H            4.97300031714728       -1.97330211810944        1.40055715700748
H            6.83415257852874       -3.04621124236744        2.58639513214588
H            9.10204507471270       -2.05992357498283        2.49781728569911
H            9.47219875961937        0.04114718984177        1.22384552816464
H            7.99049245397924        3.51726292331507       -1.36466539563757
H            6.21760685239321        4.71030391086646       -2.63242553262196
H            3.93337127109260        3.76117573856152       -2.71659330384444
H            3.41904413622989        1.67213915802982       -1.53769260185109
H            2.96910311444496        1.22882801899802        1.11996994413648
H            0.71532780530363        0.22541519183385        1.10279240656983
H            1.52325624720265       -4.28836624984719        0.18533811496623
H            0.74438420621880       -6.59607750025150       -0.08906260021912
H           -1.63974040791369       -7.05763768373647       -0.54391265947663
H           -3.26282513559573       -5.18883078599319       -0.63675542289818
H           -4.97706103123945       -1.72192434289841       -0.24945556369813
H           -8.78058734466855       -2.45030484510909       -1.45303952863520
