75
 energy: -122.465259126128 gnorm: 0.000040392037 xtb: 6.7.1 (edcfbbe)
C           -9.65266497623809       -1.20638289683031       -0.15867874020049
C           -9.39357484957895        0.10298587150625       -0.53461380173823
C           -8.09200626026735        0.57030343312331       -0.48709815821778
C           -7.07928131256438       -0.29121423655994       -0.05879602003070
C           -5.67066134786444        0.12960692129820        0.01863605954539
C           -5.31271398493154        1.46101401368901        0.20417063522077
C           -3.97365314247401        1.84423060497269        0.26676909260335
C           -3.64750907247284        3.26610591932703        0.46589386217054
C           -2.40957832918520        3.80749951428324        0.10992571045972
C           -2.17452847284229        5.15196154865992        0.33722862489308
C           -3.17525668084313        5.92375923813574        0.90793032362486
C           -4.37717405812254        5.30141143438231        1.21059159190280
N           -4.61015874432409        4.02083445567426        0.99796486824708
C           -2.98558740289601        0.87248764185409        0.15607996942201
C           -3.33052461720482       -0.46543378631999       -0.01668637292800
C           -2.28034366480554       -1.48437394117745       -0.11458013396916
N           -1.00732529398689       -1.05039393311181       -0.02580169960434
C           -0.03104773151978       -1.92671582283598       -0.08394596933401
C            1.33079744185739       -1.37581907302087       -0.08006930688680
C            2.30602977056191       -1.83676743253663       -0.96305382964973
C            3.57064023830116       -1.28208547734307       -0.95822765520008
C            3.88444294159117       -0.25904946891601       -0.06744061136671
N            5.18121655964835        0.30052216512942       -0.05927619230691
C            6.28536454559878       -0.47654301223487        0.29801783672099
C            6.15949465414456       -1.79320797087837        0.72426033178593
C            7.27603239060457       -2.53686933978340        1.07603109099514
C            8.53547312207067       -1.97513435949358        1.01890182934786
C            8.67610425139358       -0.65241641727199        0.62315606849374
C            7.56568696628204        0.09276488991130        0.27263577962928
O            7.78267151042171        1.40476227064021       -0.08095022505397
C            6.68262217126192        2.15816153773272       -0.42205249902763
C            6.91374849212925        3.47250884646441       -0.78295932490948
C            5.85944656517634        4.28902140942647       -1.16697878595408
C            4.57931032768345        3.77421896644224       -1.20116639148857
C            4.34253558620748        2.45636701076815       -0.83942329068549
C            5.38309813710501        1.63333156663260       -0.42592882627135
C            2.90914112924729        0.21452107806977        0.80685473001869
C            1.64272935116520       -0.33304947986481        0.79101264538183
C           -0.29770478511823       -3.32441076851845       -0.15328917009683
C            0.66085185557473       -4.34984592991084       -0.05339853953302
C            0.27810300819497       -5.65939697629269       -0.16605087648718
C           -1.06879494229065       -5.99705996135049       -0.37719164314711
C           -2.03042979006305       -5.02718006961733       -0.43897020984845
C           -1.67026535576591       -3.66956076383758       -0.30598788015629
N           -2.63696332719586       -2.73279573300045       -0.30445145586877
C           -4.66979231829019       -0.83230336544820       -0.08444063565343
N           -7.33523477996405       -1.55321496532918        0.28649673840209
C           -8.57883232776851       -1.98963908881981        0.23806185143313
H          -10.65321414543748       -1.60923027415748       -0.17797707913455
H          -10.19478257079420        0.74966673659454       -0.86316060555329
H           -7.86085138509230        1.57827268769080       -0.79282209242931
H           -6.06002870346528        2.22877105134634        0.32749334868906
H           -1.65345038918575        3.19231050254613       -0.35099494025168
H           -1.22456476514488        5.59268624355482        0.07004123703332
H           -3.03200421674241        6.97443860857996        1.10572009395556
H           -5.19982811599851        5.85395621230415        1.64810648897484
H           -1.93890678573196        1.12151716418453        0.22320036628966
H            2.06219313966451       -2.60476630438927       -1.68199478045024
H            4.32201365902832       -1.63329167272865       -1.64996767956881
H            5.17948942310910       -2.23899873370797        0.78808396147692
H            7.14840497564312       -3.55896252055814        1.39823090909707
H            9.40810977158629       -2.54934802859050        1.28775510832225
H            9.64347051818662       -0.17644994747511        0.58444390524543
H            7.92896372965303        3.83682476166946       -0.76163889465881
H            6.04958200324484        5.31385404879700       -1.44464604618641
H            3.75109367384706        4.39153024682957       -1.51385168585443
H            3.33959691837528        2.06250494867916       -0.88614133807916
H            3.15243714222683        1.01063459107908        1.49473592989171
H            0.88132062402518        0.02738702370331        1.46561729954149
H            1.69269776009095       -4.09360820959652        0.13405798598354
H            1.01396049389653       -6.44575723100149       -0.08750482591300
H           -1.34290342888073       -7.03758084233351       -0.47100080590617
H           -3.07542848901783       -5.26263623695889       -0.56638347819547
H           -4.93401605553596       -1.86908325262403       -0.21363494038799
H           -8.71728422916535       -3.02215664125031        0.53512316335442
