52
 energy: -79.229091765871 gnorm: 0.000103116607 xtb: 6.7.1 (edcfbbe)
O           -1.65812386074666       -0.10497356260772        2.45509998543073
C           -2.59820438024627       -1.02427271106190        1.94885229925840
C           -3.44221951271511       -0.47592183505436        0.81685060230690
C           -4.82633812735016       -0.50250648103675        0.91267536931681
C           -5.62604901335468        0.01045911360229       -0.09350763235357
C           -5.04248671204318        0.57777638912223       -1.21345520150291
C           -3.66581728925134        0.62030387369140       -1.32045777979978
C           -2.85328273160024        0.08910888800582       -0.32085550119565
C           -1.39127050496367        0.12833875154277       -0.47024960214256
C           -0.69881298404550        1.37347864187156       -0.37644326849790
C           -1.37830983849641        2.57688802972186       -0.18865977744206
C           -0.69011076041651        3.78489551960700       -0.06145953355430
C            0.68521107393154        3.79803732950976       -0.08839159698062
C            1.39058451210299        2.60244009575799       -0.24229026202628
C            0.72728372914173        1.38596882899164       -0.40329362926709
C            1.43305419855926        0.14883566704376       -0.51391619963498
C            2.88856072649362        0.11017133769145       -0.31703680053909
C            3.75351601696505        0.67251427497440       -1.25345301849796
C            5.12229785003471        0.62811979279757       -1.06971131333383
C            5.64773012005314        0.02772001861827        0.06231287859895
C            4.79747180056757       -0.52019402108803        1.00696206407242
C            3.42215400025394       -0.48918976067540        0.83141254945714
C            2.51128465183798       -1.08523457426475        1.87900729325037
O            1.33551363185512       -0.34147201073472        2.11673352553154
C            0.73654716087027       -1.07452407916492       -0.75480433962987
C            1.41571273202983       -2.25969489461903       -1.03413563998524
C            0.72353390399869       -3.45174600685831       -1.25924091615649
C           -0.65229900557878       -3.46535963523947       -1.22214253320121
C           -1.35530178640722       -2.28751239487899       -0.96325050159270
C           -0.68583755351267       -1.08645023992199       -0.72214753083957
H           -0.81750942509260       -0.19374455385127        1.98804459288743
H           -3.25921447919922       -1.27242841545051        2.78627003472589
H           -2.10323584759699       -1.94974978611336        1.62264462882239
H           -5.28460828472389       -0.92984366887918        1.79328110372212
H           -6.70128076783029       -0.02495786844732        0.00051689492244
H           -5.65796158139413        0.98625980826723       -2.00151730565213
H           -3.20044795962917        1.05178748496599       -2.19536177893798
H           -2.45548263123583        2.57282860538264       -0.12741138215975
H           -1.24528782853316        4.70127385769119        0.07178043022645
H            1.22912553697963        4.72443553524364        0.02221308034336
H            2.47027933646004        2.62330069862269       -0.23159856635945
H            3.33709244820921        1.12632093320414       -2.14120320079586
H            5.77941198676923        1.06026979527918       -1.80984121697719
H            6.71619459611178       -0.00864949513749        0.21280300185678
H            5.20662969413466       -0.97864480692001        1.89637529243695
H            3.07205747046746       -1.22126122535593        2.81444876339500
H            2.16106056091009       -2.06918003324457        1.54681240164707
H            1.57638312171334        0.54346651474846        2.41356066111629
H            2.49489927297356       -2.25361178742280       -1.08598192439794
H            1.27613773889202       -4.35671221064538       -1.46403868906113
H           -1.19666911802065       -4.38162472713309       -1.39616985016084
H           -2.43532545629866       -2.30293744983729       -0.95461007386331
