  52
        -79.22302330
 O         -1.6515306537       -0.1317316505        2.4463987044
 C         -2.5985960130       -1.0434071093        1.9402458171
 C         -3.4421781768       -0.4859185580        0.8121934027
 C         -4.8260113606       -0.5127475088        0.9085134818
 C         -5.6267146591        0.0132350029       -0.0902980760
 C         -5.0430872962        0.5956470411       -1.2027814570
 C         -3.6668295001        0.6396939840       -1.3098611980
 C         -2.8522932637        0.0935815022       -0.3187615030
 C         -1.3921627851        0.1329276212       -0.4683604494
 C         -0.7006309417        1.3770030366       -0.3868420546
 C         -1.3793446429        2.5839391015       -0.2089244632
 C         -0.6912777076        3.7924182305       -0.0901262458
 C          0.6849430475        3.8045452581       -0.1113757021
 C          1.3896660800        2.6075771811       -0.2518923868
 C          0.7269400838        1.3885278455       -0.4086958836
 C          1.4319734942        0.1525801191       -0.5038051028
 C          2.8856940195        0.1147854264       -0.3089733312
 C          3.7491312359        0.6889105136       -1.2410442969
 C          5.1179937644        0.6410045362       -1.0631407331
 C          5.6478220137        0.0275633969        0.0602609069
 C          4.8000847114       -0.5295265330        1.0018809346
 C          3.4243771277       -0.4966792996        0.8316178168
 C          2.5180752599       -1.1000858078        1.8793725398
 O          1.3355228214       -0.3681483407        2.1151807855
 C          0.7366010501       -1.0699067334       -0.7375670124
 C          1.4160581293       -2.2574658128       -1.0132246693
 C          0.7245444498       -3.4494632006       -1.2379233718
 C         -0.6521457689       -3.4620776033       -1.2068315565
 C         -1.3558552299       -2.2838913678       -0.9532295331
 C         -0.6867428494       -1.0812943277       -0.7098822347
 H         -0.8137955082       -0.2227573983        1.9741684898
 H         -3.2590959013       -1.2892085745        2.7787089026
 H         -2.1105878456       -1.9714262712        1.6106323665
 H         -5.2836329350       -0.9484758208        1.7854534743
 H         -6.7017951831       -0.0214313008        0.0049076299
 H         -5.6586817625        1.0149406064       -1.9849830948
 H         -3.2022569379        1.0804204618       -2.1805508980
 H         -2.4564231030        2.5810250276       -0.1477553126
 H         -1.2463451707        4.7103681223        0.0319126869
 H          1.2287757887        4.7317864090       -0.0082040722
 H          2.4692216718        2.6281936524       -0.2346240210
 H          3.3302460543        1.1508619449       -2.1234205871
 H          5.7724636761        1.0792372916       -1.8021158529
 H          6.7167774130       -0.0134202871        0.2054016443
 H          5.2120912267       -0.9978819775        1.8848267888
 H          3.0799845359       -1.2282943508        2.8154082852
 H          2.1790184878       -2.0884920238        1.5490536499
 H          1.5673890239        0.5179438562        2.4156004439
 H          2.4952051013       -2.2516894891       -1.0651504789
 H          1.2775346536       -4.3546027535       -1.4414610978
 H         -1.1961419716       -4.3777870445       -1.3850566872
 H         -2.4357325082       -2.2983026188       -0.9528548692
