  54
  -85.0987965800000       0.984352436622436      !
 C         -0.6146778134        2.9284234476        0.6576196598
 C          0.5323971700        0.2332243254       -0.0661879136
 C         -2.3350699464        2.8232277898       -1.4442206164
 C          1.4641470606       -0.2006712857       -1.1135897083
 C          2.5732306194        1.4872988783        0.0984687915
 N          3.9984674338        1.0891651587        0.1848957082
 C          4.2036271379       -0.9268090354       -0.6347192885
 C          3.1458375472       -1.9385239247       -0.8710816196
 C          1.8398001082       -1.5615246258       -0.9689870777
 N          0.7917785907       -2.4499414770       -0.7519274785
 C         -0.4872073106       -2.0428989284       -0.4444160431
 C         -1.5333621535       -2.8590583398       -0.6324976099
 C         -3.2976687462       -1.9798671034        0.9723734287
 N         -3.4401405030       -0.6281593416        1.4903396856
 C         -2.3919579434        0.3234864372        1.0287086943
 C         -0.6500440293       -0.6744264141        0.1530313839
 O         -3.4167956635        2.8143629082       -0.5787124665
 S         -0.8064986620        1.7257606145       -0.8456500683
 O         -0.2090304133        2.3914433867        1.8099113387
 C          1.5228960892        0.7431495578        0.9272106899
 C          2.0383219439       -0.1713768659        1.9210664497
 C          3.2999595387       -0.6303175175        1.8604232299
 C          4.2500039568       -0.2314246962        0.7997106600
 C          3.9415103417        0.4847018700       -1.1705256366
 C          2.4700319622        0.8792031951       -1.3172307612
 C         -1.8284169327        0.2269670379       -0.3993171603
 C         -1.2705502227       -0.5588886366        1.5668942749
 C         -2.3643623165       -1.5242754944        2.0131895053
 C         -2.9682270531       -2.4487848975       -0.4351342189
 C         -3.2771412220       -1.4189877568       -1.4888317154
 C         -2.7306471096       -0.2111402251       -1.4826422199
 H         -1.6077693695        3.3615791944        0.7763928138
 H          0.6516702849        1.7517152220        1.6116430161
 H          0.0857986560        3.6546244435        0.2202359239
 H         -3.7408519155        1.9062939510       -0.5206064795
 H         -1.9471433301        3.8381944889       -1.4977304212
 H         -2.5853691173        2.4795406181       -2.4502609192
 H          2.5008756410        2.5733040049        0.2005233559
 H          5.1858341734       -1.3166456636       -0.9054418360
 H          3.4009394390       -2.9773162365       -0.7237843862
 H          0.9421443383       -3.4283664151       -0.9382301821
 H         -1.3650836566       -3.8401582757       -1.0516552520
 H         -4.1113577240       -2.5594123467        1.4048985044
 H         -2.6133007400        1.3066139076        1.4305274325
 H          1.3809302295       -0.5457390729        2.6932240214
 H          3.6613617618       -1.3298838631        2.5997987160
 H          5.2724731456       -0.2456631629        1.1908882937
 H          4.6316770550        0.8743307637       -1.9168940144
 H          2.2336129989        1.5401425228       -2.1505388802
 H         -0.6263071772       -0.2223652286        2.3675580915
 H         -2.3974618859       -1.9245191803        3.0161631182
 H         -3.5948085492       -3.3249114814       -0.6171646362
 H         -3.9195214293       -1.7190130552       -2.3032894178
 H         -2.9144448350        0.4684072517       -2.2994318412
  54
  -85.0948826800000       1.564756337756372E-002 !
 C         -2.4005934330        2.7857907569       -1.1804739531
 C          0.5123110461        0.1630597166       -0.0380958413
 C         -0.5388204513        2.6819389793        0.8746605448
 C          1.4621663380       -0.2338183143       -1.0989077289
 C          2.5557263619        1.3889372417        0.2030583864
 N          3.9919434949        1.0352119578        0.2761120088
 C          4.2100924760       -0.9573541153       -0.5994325139
 C          3.1621941719       -1.9613388637       -0.8756184843
 C          1.8515993019       -1.5934102846       -0.9958254113
 N          0.8156262624       -2.5025068690       -0.8140178937
 C         -0.4700031409       -2.1228358874       -0.4982573269
 C         -1.5078945485       -2.9393759150       -0.7247895960
 C         -3.2794369132       -2.1395020559        0.9084187280
 N         -3.4379624706       -0.8137628070        1.4832321593
 C         -2.4042247612        0.1690530658        1.0584295672
 C         -0.6521869610       -0.7795649988        0.1463132104
 O         -1.6566268510        3.2088195682        1.4454939116
 S         -0.8090849033        1.6530872797       -0.7050391821
 O         -2.1166131520        4.1509929199       -1.0216175822
 C          1.5423949010        0.5429720937        0.9530669765
 C          2.0337140083       -0.3469284025        1.9332696707
 C          3.3425473485       -0.7146403876        1.9315418644
 C          4.2680534260       -0.2915534221        0.8669109209
 C          3.9439905518        0.4666336770       -1.0951336208
 C          2.4706790330        0.8574383382       -1.2429660995
 C         -1.8336988861        0.1307645138       -0.3676122847
 C         -1.2708986287       -0.7195427867        1.5638505145
 C         -2.3522321860       -1.7164796497        1.9694852620
 C         -2.9455341538       -2.5442589387       -0.5183331614
 C         -3.2623224347       -1.4727308905       -1.5289440948
 C         -2.7278491456       -0.2612805190       -1.4734256229
 H         -3.2422531168        2.5367552271       -0.5402946068
 H         -1.4989201728        4.4294501620       -1.7070555279
 H         -2.6185537795        2.5462180563       -2.2203990893
 H         -2.0221270694        3.8768289649        0.8406354220
 H         -0.0544430880        1.9978929069        1.5726038164
 H          0.1748676226        3.4381090641        0.5346793398
 H          2.4304708877        2.4603217611        0.3830156183
 H          5.1964872118       -1.3344574895       -0.8740078041
 H          3.4128477570       -3.0016237591       -0.7277100209
 H          0.9819014573       -3.4737006072       -1.0257371186
 H         -1.3301527476       -3.9037962587       -1.1775442106
 H         -4.0852487490       -2.7474440214        1.3166538142
 H         -2.6466703739        1.1380054123        1.4842519036
 H          1.3639847188       -0.8129881705        2.6433688590
 H          3.7184023445       -1.4001760367        2.6753590603
 H          5.3013449615       -0.3085289900        1.2269482908
 H          4.6373004483        0.8788890478       -1.8270562236
 H          2.2439867222        1.5581282340       -2.0461043467
 H         -0.6238774121       -0.4118751831        2.3758117773
 H         -2.3799565571       -2.1592859913        2.9547671037
 H         -3.5665824084       -3.4161990010       -0.7383676517
 H         -3.9043477174       -1.7447758823       -2.3530908275
 H         -2.9265733430        0.4619602431       -2.2467472323
