  69
       -107.89921739
 C          8.8244030529       -3.0707784967       -1.5795501482
 C          8.8232893967       -1.7073544967       -1.8286957859
 C          7.7794762591       -0.9182757342       -1.3846595681
 C          6.7205294160       -1.4903133762       -0.6799486903
 C          5.5892733314       -0.6914139192       -0.2339222148
 N          4.3412911055       -1.1595996603       -0.3406984699
 C          3.5364087174       -0.1746319907        0.0604909492
 C          2.1399798648       -0.2266519755        0.0958953802
 C          1.4404154029       -1.3853574921       -0.3603799954
 C          0.0850036361       -1.3722999188       -0.4079790166
 C         -0.6494444191       -0.2187682152        0.0103066422
 C         -2.0724340121       -0.1597389546        0.0189820515
 C         -2.7688750877        1.0737918962        0.0596912218
 C         -4.1348964878        1.1327246496        0.0389945805
 C         -4.9064594211       -0.0410339790       -0.0056035729
 N         -6.2940637135        0.0193108968       -0.0251288399
 C         -6.9412171023        1.0660085145       -0.6896854573
 C         -6.4294773208        1.5638121519       -1.8893184446
 C         -7.0708043265        2.5989650855       -2.5400133387
 C         -8.2280498973        3.1500111839       -2.0123645844
 C         -8.7410890448        2.6577098293       -0.8224963527
 C         -8.1055879686        1.6258049009       -0.1609422596
 C         -7.0516374080       -0.9650816723        0.6161066235
 C         -6.6193930254       -1.5148607334        1.8244045359
 C         -7.3714284019       -2.4882710144        2.4515911723
 C         -8.5616341002       -2.9255741378        1.8917605306
 C         -8.9958560311       -2.3814658429        0.6930147114
 C         -8.2497964330       -1.4108522319        0.0548400307
 C         -4.2357559041       -1.2753529050       -0.0308827204
 C         -2.8693904159       -1.3310693205       -0.0231144279
 C          0.1537956044        0.8521905199        0.4985779257
 N          1.4440742502        0.8486836864        0.5516192226
 O          4.2295901963        0.9432784688        0.4319706593
 C          5.5474025090        0.6243980171        0.2773311477
 C          6.5378885596        1.5617102869        0.6959335963
 C          6.1710385155        2.9062651087        0.8926204104
 C          7.1039909603        3.8350362035        1.2942553598
 C          8.4204579235        3.4548799879        1.5224592339
 C          8.7888382200        2.1252562929        1.3596545066
 C          7.8670023359        1.1845909346        0.9570375792
 C          6.7146478394       -2.8660906338       -0.4574605696
 C          7.7648818707       -3.6481199644       -0.8982068821
 H          9.6454529309       -3.6822915986       -1.9236359373
 H          9.6389366777       -1.2576627303       -2.3759242350
 H          7.7702958782        0.1406694073       -1.5962454294
 H          2.0274695781       -2.2174234352       -0.7123323261
 H         -0.4448778707       -2.2216164596       -0.8118201564
 H         -2.2109624039        1.9963511046        0.0885954591
 H         -4.6359807671        2.0892436809        0.0741031535
 H         -5.5358223494        1.1241380422       -2.3067926667
 H         -6.6688241647        2.9723546584       -3.4698803089
 H         -8.7272024815        3.9574516165       -2.5253752454
 H         -9.6388960691        3.0857480269       -0.4022189213
 H         -8.4982596694        1.2508013523        0.7729102876
 H         -5.7002311223       -1.1624507361        2.2679074074
 H         -7.0298010547       -2.9026358267        3.3882818005
 H         -9.1471737062       -3.6851562206        2.3863710423
 H         -9.9187964903       -2.7212665872        0.2474047760
 H         -8.5815432124       -0.9969900981       -0.8861191206
 H         -4.8144590718       -2.1866660674       -0.0760478055
 H         -2.3901486078       -2.2970753991       -0.0399116468
 H         -0.3167099899        1.7215825638        0.9394983766
 H          5.1470445704        3.1949407254        0.7127378853
 H          6.8101515192        4.8653526528        1.4323774227
 H          9.1507856421        4.1857208122        1.8350762804
 H          9.8065715039        1.8223484639        1.5591062618
 H          8.1554798592        0.1495920364        0.8653613145
 H          5.8793568811       -3.3025350388        0.0676694354
 H          7.7583495289       -4.7121779341       -0.7124317310
