118
 energy: -154.822674765418 gnorm: 0.000073269743 xtb: 6.7.1 (edcfbbe)
C           -7.17803693183104        0.78043988950649       -2.99729812214868
C           -6.87968524896032        1.58713954955003       -1.73079454582079
C           -7.76196399923505        1.04103488754624       -0.59961372053948
C           -7.23217549277173        3.05622846567506       -2.00373934466143
C           -5.42300072354475        1.49511151598932       -1.30729188593278
C           -4.47248748787294        0.76356664226321       -2.00870873776498
C           -3.16160905124970        0.69124409773980       -1.57872493152245
C           -2.74350002712099        1.35507623987860       -0.42990786589608
C           -1.33712289207292        1.28263600566142       -0.01764092370908
C           -0.57302762785925        2.48490206161832        0.05333370174918
C           -1.12282772223426        3.74877157835552       -0.18652662843460
C           -0.40052154898601        4.90756961485967        0.02706315876022
C            0.90422959293390        4.86072932875924        0.51148762893447
C            1.72093971547691        6.10119093236522        0.83186254749812
C            0.94892384699410        7.39773521962461        0.57351086831760
C            2.98388054014408        6.11207724984847       -0.04161170670182
C            2.11806859665209        6.06576218470115        2.31461134676294
C            1.48032289055644        3.60808016998977        0.68776468386813
C            0.80124423041931        2.41868639219456        0.41176318760819
C            1.45345574499975        1.14646869457966        0.44382971310316
C            2.87095933270494        1.09417543575019        0.82950722367813
C            3.85258558111189        1.77833822990745        0.11363510957957
C            5.16945944209793        1.75739893416618        0.52962383021946
C            5.52973927401548        1.06477553546221        1.67347053628556
C            4.56244516890012        0.38587384440806        2.39483664889956
C            3.24586565260402        0.39898153251296        1.97732073445421
C            0.72353234712428       -0.03281129596773        0.20807421314364
C            1.33871573366513       -1.27900541105864       -0.02919291326787
C            2.74460889311838       -1.34877130893248       -0.44366368519700
C            3.68963113898993       -2.10541540865444        0.24596432211886
C            4.99813194420429       -2.16081517786078       -0.18447056568096
C            5.42296650597488       -1.48359599968984       -1.32529349914159
C            6.87910248419437       -1.57312980890971       -1.75122579417779
C            7.17608468012316       -0.75791872521040       -3.01259228057762
C            7.76301215448843       -1.03498465922790       -0.61751380583123
C            7.23078724724354       -3.04044223804641       -2.03458309376554
C            4.47172483373689       -0.74726490437243       -2.02069808870392
C            3.16140371235685       -0.67746177475738       -1.58859618365411
C            0.57458598647285       -2.48170569751698        0.03351774520639
C            1.12397810750430       -3.74368505635681       -0.21701695602655
C            0.40184336010492       -4.90407698132773       -0.01170163839924
C           -0.90221293551350       -4.86093212901067        0.47492622627605
C           -1.71889259354396       -6.10375343968212        0.78601871717030
C           -2.11651931204498       -6.07941465895846        2.26885146177774
C           -0.94672386866055       -7.39830289236870        0.51831741913608
C           -2.98150839730453       -6.10803624527386       -0.08799211004665
C           -1.47789576430337       -3.60968574686229        0.66203799485427
C           -0.79915566839218       -2.41819982883195        0.39442578236053
C           -1.45120287800749       -1.14623124937741        0.43740421678187
C           -2.86794278203777       -1.09676073079061        0.82608990476233
C           -3.85091886782792       -1.77604834557243        0.10741067627472
C           -5.16690669130371       -1.75857381628742        0.52634191124041
C           -5.52501665567554       -1.07424069482798        1.67585134381094
C           -4.55642242631212       -0.40004075028869        2.39988057666265
C           -3.24071492926326       -0.40976250614495        1.97952034694820
C           -0.72153708906771        0.03471797998971        0.20939858772173
C           -3.68787292392422        2.10681254131736        0.26597169951692
C           -4.99690597329910        2.16477908943850       -0.16247646474826
H           -6.96107563289423       -0.27463583283220       -2.84729425473744
H           -6.59859341559972        1.14734300692567       -3.84139506506325
H           -8.23288980985796        0.87502733946176       -3.24804829369244
H           -7.63746796495145        1.61671410073580        0.31321670756705
H           -7.49704004633637        0.00783562106049       -0.38735767229849
H           -8.81047092002779        1.08034722918423       -0.88836572308243
H           -8.26977539063183        3.14115267876468       -2.32032702132990
H           -6.59680107154871        3.45487296410097       -2.79212001740526
H           -7.09619223791350        3.66714934586383       -1.11561095588097
H           -4.74103687765532        0.23294509100459       -2.90777402352253
H           -2.44284675937521        0.11474212919209       -2.14432062873230
H           -2.13844224515529        3.82434155795603       -0.54424638751011
H           -0.88116290497678        5.85063300125789       -0.17558963300570
H            0.67377220708871        7.48721410327590       -0.47494615222271
H            0.04963946735837        7.44538979601479        1.18334752215549
H            1.57467832946062        8.25031677430543        0.83023106119324
H            2.71208934084817        6.10057994971344       -1.09533225235725
H            3.61157529666614        5.24815772019632        0.15935423649900
H            3.56697606456632        7.00957449418338        0.15461477318872
H            1.22875637665020        6.04335907184200        2.94126786172302
H            2.71752201143642        5.18856654639178        2.54275026380648
H            2.69759805658740        6.95089127209666        2.56886680525010
H            2.49548523947812        3.53944303756568        1.04465661964021
H            3.57741211868949        2.30918190221218       -0.78662757561062
H            5.91887984002722        2.28859819078841       -0.04047099301451
H            6.55863671548815        1.05476588432496        2.00206481062966
H            4.83614345796988       -0.15332855892825        3.29025235170211
H            2.48992698498574       -0.12522053833535        2.54480962719889
H            3.39819477471706       -2.62684372144893        1.14663632114217
H            5.70101755320302       -2.74589222374844        0.38996422162810
H            6.95925484566269        0.29611365504247       -2.85527603023295
H            6.59579602374309       -1.11916473800793       -3.85854177734537
H            8.23068727264124       -0.85077225522119       -3.26504132634578
H            7.63845012377538       -1.61587998138931        0.29200188753086
H            8.81123257839473       -1.07402730255978       -0.90734958191322
H            7.49970769679283       -0.00268861062555       -0.39892650775481
H            7.09600165933738       -3.65727868274185       -1.15036912946012
H            8.26788175712222       -3.12350092237123       -2.35331916387031
H            6.59410938402030       -3.43361708229498       -2.82465786281379
H            4.73927125126279       -0.21085125515737       -2.91661958251617
H            2.44204044237583       -0.09710118536107       -2.14945878040234
H            2.13912258749249       -3.81645849305408       -0.57665528105622
H            0.88203429227664       -5.84556358281928       -0.22259011964134
H           -2.71672016444865       -5.20439531077289        2.50327397188665
H           -2.69547251180455       -6.96680443612585        2.51644657072344
H           -1.22740847395011       -6.06094656830166        2.89592110144183
H           -0.67204909479024       -7.48049052610411       -0.53085909811088
H           -0.04714174334346       -7.44995070403174        1.12739163536820
H           -1.57218330500976       -8.25277215653129        0.76941838819195
H           -2.70931289616326       -6.08880823698110       -1.14149978658136
H           -3.60906320539253       -5.24545931630448        0.11911051931157
H           -3.56485496335401       -7.00684040999800        0.10138562938913
H           -2.49250979191548       -3.54384606371802        1.02099654801429
H           -3.57755798024633       -2.30035156650873       -0.79723082308265
H           -5.91730900945763       -2.28615400820349       -0.04582767278634
H           -6.55320261609439       -1.06704890506518        2.00673552493775
H           -4.82839740725691        0.13284441688420        3.29959132442393
H           -2.48381269091298        0.11077053856340        2.54910690885726
H           -3.39551916819701        2.62212216445551        1.16986034847139
H           -5.69924496518357        2.74577022033800        0.41675003467852
