118
 energy: -154.822206518679 gnorm: 0.000047287874 xtb: 6.7.1 (edcfbbe)
C           -7.27086257096704        0.28138180058785       -2.90715428897116
C           -7.00721127048082        1.09997160490674       -1.64060954071558
C           -7.82869670338390        0.48718948790423       -0.49786336095850
C           -7.46666388128804        2.54218736752877       -1.89738953396217
C           -5.54036240864470        1.10794966920705       -1.24307373564493
C           -4.55365455075117        0.44691362555647       -1.96418451483222
C           -3.23348707633477        0.46413993287400       -1.55702009338314
C           -2.84302535149434        1.15115467906036       -0.41238723472901
C           -1.42896185920956        1.17802396360607       -0.02083188830278
C           -0.75365065740209        2.43383836785096        0.03584078832068
C           -1.39874979227468        3.65135136804134       -0.21302301357349
C           -0.75963879843201        4.85735583181116       -0.01622137000586
C            0.55140111582493        4.91399359233599        0.46056817201621
C            1.19661572111843        6.26278996894057        0.73037605598976
C            0.36038470799492        7.01603569149110        1.77469646432701
C            1.23955290131262        7.06612691014163       -0.57755117187913
C            2.62699153242121        6.13977855657715        1.26293067475153
C            1.21883757795565        3.71344428991451        0.64709725720471
C            0.62188862940814        2.47342845893333        0.38713811050306
C            1.36420570397971        1.25216427278284        0.43401578729770
C            2.77684452195369        1.30119056044048        0.83733526669826
C            3.72022654141929        2.04619349477041        0.13084473086845
C            5.02877845660787        2.11897835585357        0.56657706365290
C            5.41845487770346        1.46054525848700        1.72081201311470
C            4.48949050110007        0.72050433656564        2.43230665538635
C            3.18175118137790        0.64022120279217        1.99527535100324
C            0.72313861544655        0.02010197631538        0.20107173090548
C            1.42927261666552       -1.17696250598895       -0.03042708084992
C            2.84249619396022       -1.14788075523899       -0.42483048412893
C            3.82591354828103       -1.83461878112501        0.28413784474136
C            5.14216268384023       -1.80046494970408       -0.12385496253419
C            5.53803021104487       -1.10004892973660       -1.26111867672217
C            7.00400994079274       -1.08987276575785       -1.66181408934759
C            7.26490689475752       -0.26425043429172       -2.92435809715558
C            7.82802365201217       -0.48347912763127       -0.51748242738070
C            7.46287026852642       -2.53063796968726       -1.92763176883766
C            4.54977526283512       -0.43494851846739       -1.97635211018627
C            3.23049846838721       -0.45443218213464       -1.56641594056845
C            0.75406562482935       -2.43307253248303        0.02058359432686
C            1.39861659653709       -3.64916494315187       -0.23650240824553
C            0.75990082330742       -4.85625566526673       -0.04515220851929
C           -0.55011823195759       -4.91557402307617        0.43411058385746
C           -1.19477378549448       -6.26586415907231        0.69773592969952
C           -0.35626505183401       -7.02500600827911        1.73594227304412
C           -1.24062968180120       -7.06182055402810       -0.61459536746231
C           -2.62396348030263       -6.14584330963011        1.23414303225997
C           -1.21714000775272       -3.71609286597756        0.62880527462687
C           -0.62072862197830       -2.47463879260765        0.37455520403998
C           -1.36294087628887       -1.25366506152966        0.42983906850235
C           -2.77471496146217       -1.30496694938790        0.83586992585435
C           -3.71957205609907       -2.04610827323963        0.12729135549070
C           -5.02718566791096       -2.12137981039238        0.56541066067548
C           -5.41442289360440       -1.46937873053375        1.72410949834191
C           -4.48396963652555       -0.73324042129429        2.43770656069449
C           -3.17717871556594       -0.65043970516251        1.99831373276461
C           -0.72235192300588       -0.02031811791087        0.20245672754581
C           -3.82491068044394        1.83387347338209        0.30256252092591
C           -5.14203796924233        1.80198941334880       -0.10276422253993
H           -6.97874433335718       -0.75686781752418       -2.76770906055910
H           -6.73286837587116        0.69213839456945       -3.75845665804519
H           -8.33391948940277        0.30383975048839       -3.13941681195179
H           -7.72579427875695        1.06334700106715        0.41735517985445
H           -7.49053239382803       -0.52716981677842       -0.29933369288445
H           -8.88281028838180        0.45748617756255       -0.76668385209958
H           -8.51273177923806        2.55565276701063       -2.19674287724608
H           -6.87397707029288        2.98942471802466       -2.69292057704315
H           -7.35958194297475        3.15581519286935       -1.00717873761463
H           -4.80035678795332       -0.09759636653877       -2.86121822213980
H           -2.48622938563030       -0.05895257681093       -2.13739908228881
H           -2.41934225470852        3.64778722438079       -0.56437987775628
H           -1.30367234350666        5.76664387509860       -0.22293460168336
H           -0.65493508133751        7.18141187893363        1.42505202732528
H            0.31388044190918        6.44538925111058        2.70002359247730
H            0.80934786906053        7.98396362869032        1.98798876747724
H            0.24096486313909        7.24081354059487       -0.96841701685974
H            1.81085488716963        6.52710330783361       -1.33061457429706
H            1.71341786488901        8.03109717641854       -0.40960182359415
H            2.65107707871672        5.58437721844791        2.19776320592618
H            3.27438017921483        5.64640099341323        0.54159509136779
H            3.02965243680688        7.13321155803688        1.45111241201577
H            2.23625144475998        3.71446342142852        0.99793314429398
H            3.42371516913430        2.54944022426582       -0.77839420739712
H            5.74849869947801        2.69688317667560        0.00378928420780
H            6.44030480712360        1.52414548456862        2.06495386276743
H            4.78600815726553        0.20661052246073        3.33532262977159
H            2.45534283664982        0.06816994039118        2.55512352484233
H            3.55550026618991       -2.37261085821183        1.18164735674221
H            5.87415690064400       -2.33285007636090        0.46527194630445
H            6.97317845618945        0.77322324310842       -2.77847544327145
H            6.72498419308283       -0.67022065075880       -3.77673366186596
H            8.32744232431138       -0.28547931832987       -3.15911508149707
H            7.72710226280871       -1.06471845286508        0.39473747787753
H            8.88154867488008       -0.45231029458908       -0.78844144833719
H            7.49033955759885        0.52976978900779       -0.31257052541487
H            7.35770496344695       -3.14922159653853       -1.04062906978035
H            8.50828712750526       -2.54244573486078       -2.22932360253460
H            6.86844938654854       -2.97342119052299       -2.72435859789579
H            4.79454490251130        0.11461359536598       -2.87083011703307
H            2.48199408601479        0.07191131363132       -2.14223223210397
H            2.41846748344093       -3.64362461783271       -0.58998173606234
H            1.30347577291068       -5.76436620687708       -0.25816026799144
H           -0.30774693465266       -6.45960949080656        2.66438191946435
H           -0.80474996458482       -7.99413936163382        1.94473107822746
H            0.65828993632397       -7.18837701757785        1.38315389382047
H           -1.81362324785157       -6.51857690906702       -1.36332784255054
H           -0.24291656386077       -7.23427523989695       -1.00867273570075
H           -1.71410743393134       -8.02773488339536       -0.45102706627028
H           -3.27295674116131       -5.64847842868883        0.51700079505387
H           -2.64597415110718       -5.59564628696704        2.17209834936436
H           -3.02620012341121       -7.14031511278960        1.41769742136029
H           -2.23381128798595       -3.71908052158777        0.98177639075170
H           -3.42500235197649       -2.54423680912813       -0.78539109775442
H           -5.74809132092485       -2.69616837641849        0.00095102200541
H           -6.43553631310316       -1.53492350757227        2.07006841922330
H           -4.77859568930111       -0.22430944398150        3.34414542909995
H           -2.44960302860575       -0.08145204660728        2.55976557892766
H           -3.55255099526124        2.36683030002418        1.20248395299812
H           -5.87275786683448        2.33104232862131        0.49092880395722
