52
 energy: -89.853835188047 gnorm: 0.000036135142 xtb: 6.7.1 (edcfbbe)
N            5.84346739961281       -1.88908532712060        0.77408130392295
C            4.85936890593659       -1.32598435122715        0.54701107671032
C            3.66510544918242       -0.68472892865603        0.25429587437640
C            2.44589393987787       -1.32545611827463        0.45598519582133
C            1.24006826982695       -0.68960427337661        0.24229560913065
N            0.04773911959689       -1.31885818317020        0.55060328900772
C           -0.29641180785582       -2.62115884631472        0.22471822272269
C            0.40273446132347       -3.55687712928952       -0.52379731249946
C           -0.19816510380279       -4.78150598400344       -0.75414731108836
C           -1.46871978666999       -5.07220939733122       -0.26365067407331
C           -2.18728598879123       -4.13167382755158        0.45252311631022
C           -1.60230101648454       -2.89847343177507        0.69794332828602
C           -2.06531122484003       -1.70326917970541        1.34189585349276
C           -3.22249100604629       -1.30582783765650        1.99357131923688
C           -3.26341748226461       -0.01392903734641        2.49371683013382
C           -2.15725465971727        0.82113082494382        2.34295821583531
N           -1.04861215098235        0.46961310692146        1.71669673325205
C           -1.01680384463880       -0.75434955675484        1.22163155395503
C            1.23734189691280        0.69600321416326       -0.24017425353969
N            0.04274068763340        1.31966223599384       -0.55104282548472
C           -0.30822693011347        2.62032864191504       -0.22590071360427
C            0.38492116134228        3.55934091075665        0.52406763587531
C           -0.22222023258047        4.78113557813203        0.75310092189965
C           -1.49307903683331        5.06585835030493        0.25988691323184
C           -2.20568715932251        4.12194481285182       -0.45779397676445
C           -1.61438998060437        2.89150221951941       -0.70192454545158
C           -2.07040859608398        1.69412330291297       -1.34683036722169
C           -3.22431595806806        1.29124143358552       -2.00095913361119
C           -3.25807168137720       -0.00080892528586       -2.50124362916280
C           -2.14829723887345       -0.83063453318229       -2.34816514966367
N           -1.04267714935636       -0.47392389744915       -1.71950260628960
C           -1.01769289252581        0.75016126333257       -1.22434767142484
C            2.44063098581264        1.33747898619872       -0.45131520307857
C            3.66239691859563        0.70244923787941       -0.24705412748751
C            4.85426378116686        1.34925995398915       -0.53730422898636
N            5.83624447468838        1.91689867019023       -0.76226450311645
H            2.45444870079344       -2.32885301497346        0.85722051538902
H            1.37494902932208       -3.33669287373522       -0.93451489693284
H            0.32851213916997       -5.52591027935853       -1.33142656613701
H           -1.90164434620417       -6.04187836819152       -0.45739994202691
H           -3.18340718654782       -4.34580307171868        0.80867909311888
H           -4.05889915759304       -1.97915320709150        2.10928611990006
H           -4.14212289878351        0.35258175463358        2.99989639598845
H           -2.16107865766114        1.82953223390758        2.73268422940755
H            1.35729680661170        3.34374912194772        0.93683230983665
H            0.29972966328022        5.52803075061987        1.33145521955583
H           -1.93097618954131        6.03347654854819        0.45270217582317
H           -3.20205617196016        4.33136125367011       -0.81604521935210
H           -4.06361471667215        1.96064488819441       -2.11851370309562
H           -4.13395911494965       -0.37145184779379       -3.00929134674761
H           -2.14657405290886       -1.83907155414096       -2.73781819614344
H            2.44535463618676        2.34090022251342       -0.85255179473587
