52
 energy: -89.945130105757 gnorm: 0.000040643139 xtb: 6.7.1 (edcfbbe)
N           -1.88895152318674        6.33919407363894       -0.70904217432780
C           -1.32817994505212        5.36162885908237       -0.50268419839812
C           -0.65790000633211        4.14277303006348       -0.24891208375490
C           -1.29580121073254        2.93438025219981       -0.50426928968601
C           -0.65359501354487        1.72605096797031       -0.26589421675010
N           -1.29341581713738        0.53076609608322       -0.58356931568710
C           -2.54584338756984        0.12151218280422       -0.14552362440114
C           -3.48124242295964        0.80455351180761        0.61321600303421
C           -4.65225913451927        0.14474136165917        0.93924070556806
C           -4.88855206275958       -1.16493041330987        0.53070718821624
C           -3.94875963617784       -1.85912972376818       -0.20538496072582
C           -2.76640154859254       -1.21574697966275       -0.54481288617479
C           -1.58613665437511       -1.63429369551510       -1.24682631476919
C           -1.15044474580192       -2.79501377396090       -1.86454560765875
C            0.11352307890051       -2.77658738333826       -2.43587020357509
C            0.87605361969027       -1.61489543576283       -2.39158765349644
N            0.48623181711210       -0.49045132315061       -1.81061991004806
C           -0.70423298155733       -0.52575367973219       -1.23834123808808
C            0.65337384932222        1.72615794603838        0.26649442853348
N            1.29337295654983        0.53099778878907        0.58427530818510
C            2.54576207676146        0.12191115820687        0.14592709214427
C            3.48095482671982        0.80514999660464       -0.61288636857976
C            4.65192634352632        0.14546393117963       -0.93931970016364
C            4.88837011238181       -1.16428338507671       -0.53112322418093
C            3.94878243203077       -1.85867441126391        0.20505108562799
C            2.76648024723292       -1.21541160953138        0.54489909870801
C            1.58636504166848       -1.63418305158934        1.24702870320287
C            1.15085294440807       -2.79508859903401        1.86452246675804
C           -0.11306357677558       -2.77692287217398        2.43597005455102
C           -0.87571307839636       -1.61529604358418        2.39202491837241
N           -0.48606004800820       -0.49067404077359        1.81128182614409
C            0.70435711680695       -0.52572154526275        1.23888404243059
C            1.29551571979615        2.93459214703473        0.50452264866427
C            0.65762610177521        4.14287839129978        0.24862797497625
C            1.32799288232973        5.36183341213346        0.50167052480358
N            1.88887758053451        6.33944977658058        0.70741104593136
H           -2.28987422197533        2.93683680401940       -0.92618204470967
H           -3.30196317456623        1.81059879744952        0.95881580432014
H           -5.39803527225694        0.65661087803313        1.52873447065803
H           -5.81614304010173       -1.64475037994923        0.80440156455473
H           -4.12118384642562       -2.88104664078270       -0.50725974011691
H           -1.76968654197885       -3.67927836529010       -1.89929671308934
H            0.50801613303901       -3.65449892050905       -2.92247861714556
H            1.85907985626655       -1.57592178373102       -2.84061449625777
H            3.30155046540161        1.81124951839152       -0.95826033745952
H            5.39752212617449        0.65748427895539       -1.52890972471542
H            5.81590362485746       -1.64401600138289       -0.80516942016402
H            4.12132182630727       -2.88064734707903        0.50666980243766
H            1.77016556890379       -3.67931638437912        1.89895520047060
H           -0.50742579622571       -3.65499027029178        2.92240465299556
H           -1.85868793087656       -1.57652391721266        2.84118215779852
H            2.28957326939058        2.93723081707115        0.92646829505002
