  66
       -105.31053283
 C         11.9231305126        0.4431143659       -0.0707963392
 C         11.2345725007       -0.5520034674       -0.7487319791
 C          9.8524887906       -0.5250966926       -0.7489837424
 C          9.2016227411        0.5041390848       -0.0659763008
 C          7.7362404398        0.5757264335       -0.0384663073
 C          7.0828137829        1.6202035055        0.6193506374
 C          5.7036114191        1.6436652381        0.6282921048
 C          4.9950972405        0.6296611438       -0.0187789529
 C          3.5307516972        0.6028079760       -0.0422411681
 C          2.7962130761        1.7820743968       -0.1964335374
 C          1.4256398734        1.7415124233       -0.2205428503
 C          0.7133653942        0.5398808300       -0.0912782247
 C         -0.7347420909        0.5073937259       -0.1104375241
 C         -1.4956429210        1.6671975258       -0.3203480331
 C         -2.8669103843        1.6488184707       -0.3228957317
 C         -3.5523840349        0.4477698315       -0.1190413149
 C         -5.0168081335        0.4106467683       -0.1205876520
 C         -5.7289192151       -0.6343756474       -0.7117438993
 C         -7.1079980471       -0.6152155322       -0.6879317549
 C         -7.7575748860        0.4575884979       -0.0737029889
 C         -9.2228066363        0.5283495064       -0.0373935531
 C         -9.8696786507        1.6088066097        0.5658919498
 C        -11.2517739160        1.6345800177        0.5745289815
 C        -11.9442900883        0.5871221802       -0.0150436703
 C        -11.2091471949       -0.4409957116       -0.5881166147
 N         -9.8915723777       -0.4759031318       -0.6030194618
 N         -7.0835219784        1.4548581794        0.4984418274
 C         -5.7694333676        1.4266964491        0.4745297060
 C         -2.8159068037       -0.7060552413        0.0787984587
 C         -1.4171269099       -0.7131161509        0.0864560163
 C         -0.6658083035       -1.9432688407        0.2678186774
 C         -1.3077909175       -3.1742199180        0.4633336060
 C         -0.6041669324       -4.3472214127        0.5961802861
 C          0.7828317574       -4.3273899183        0.5299625866
 C          1.4376292418       -3.1323307779        0.3518055273
 C          0.7450924554       -1.9196038275        0.2289444532
 C          1.4454793788       -0.6567629407        0.0705174837
 C          2.8425305062       -0.5897542722        0.0896730922
 C          5.7515681501       -0.3589924306       -0.6542210305
 N          7.0657116830       -0.3908269563       -0.6652795202
 N          9.8666500984        1.4586853385        0.5836444850
 C         11.1842791174        1.4227246863        0.5772207944
 H         13.0015552832        0.4603297753       -0.0446936388
 H         11.7690428565       -1.3350511691       -1.2680151686
 H          9.2624610780       -1.2692941123       -1.2579583071
 H          7.6718149292        2.3780248941        1.1093223337
 H          5.1719677787        2.4275796710        1.1492257819
 H          3.3104411838        2.7242261722       -0.3159968939
 H          0.8978928152        2.6735316053       -0.3388550487
 H         -1.0061756151        2.6109413957       -0.4957055229
 H         -3.4198199058        2.5578798154       -0.5066967372
 H         -5.2003554716       -1.4385759956       -1.2043425408
 H         -7.6995880036       -1.3966719239       -1.1358338443
 H         -9.2767293718        2.3926395263        1.0073901823
 H        -11.7832472982        2.4565715711        1.0325204307
 H        -13.0228688904        0.5668356611       -0.0307491956
 H        -11.7001608363       -1.2824026852       -1.0611895832
 H         -5.2793074187        2.2533934298        0.9738263047
 H         -3.3611106394       -1.6194873001        0.2489508670
 H         -2.3829567168       -3.2239329920        0.5145683722
 H         -1.1286801152       -5.2791572811        0.7460920845
 H          1.3452312243       -5.2447690032        0.6201241215
 H          2.5139179801       -3.1498923244        0.3042271533
 H          3.4247620026       -1.4833420851        0.2409628944
 H          5.2648423605       -1.1584772573       -1.1992795180
 H         11.6721770314        2.2218822568        1.1211934499
  66
       -105.31049406
 C         11.9315756073        0.7276835066       -0.1163916946
 C         11.2304920121        1.5466924192       -0.9893289567
 C          9.8489342265        1.4985366757       -0.9846231188
 C          9.2111624632        0.6277593326       -0.0987571048
 C          7.7468948066        0.5433127351       -0.0536306816
 C          7.1077727200       -0.3173508310        0.8416455600
 C          5.7291364680       -0.3575848139        0.8588210975
 C          5.0065861925        0.4545015360       -0.0174954259
 C          3.5419543394        0.4561542965       -0.0425845519
 C          2.8296662080        1.6459707592       -0.2209191818
 C          1.4584956598        1.6317228821       -0.2349128640
 C          0.7230560652        0.4468137054       -0.0807374629
 C         -0.7253942943        0.4435592357       -0.0862028565
 C         -1.4646578588        1.6223316675       -0.2676161843
 C         -2.8357981504        1.6318535204       -0.2559569186
 C         -3.5434673044        0.4446253456       -0.0458488123
 C         -5.0080279034        0.4402962169       -0.0137973420
 C         -5.7247932601       -0.3365900333        0.8980090933
 C         -7.1036674504       -0.2999125699        0.8850998121
 C         -7.7482790827        0.5199762000       -0.0436220978
 C         -9.2128563112        0.5971882113       -0.0897604035
 C         -9.8544522518        1.4133086871       -1.0235981347
 C        -11.2362375218        1.4537158620       -1.0320024325
 C        -11.9336536946        0.6821970869       -0.1141627570
 C        -11.2035357134       -0.0952984332        0.7740232387
 N         -9.8862066532       -0.1416301048        0.7916325063
 N         -7.0698484279        1.2597432625       -0.9202694312
 C         -5.7560314892        1.2176788961       -0.9020767769
 C         -2.8290442686       -0.7268603440        0.1266406781
 C         -1.4307842475       -0.7652152950        0.1018314955
 C         -0.7028896859       -2.0121892872        0.2626481405
 C         -1.3684540852       -3.2359261438        0.4201729384
 C         -0.6868363960       -4.4197182859        0.5717485562
 C          0.7016580849       -4.4177674422        0.5676975876
 C          1.3789789407       -3.2323359351        0.4110211842
 C          0.7089322806       -2.0105694083        0.2567266843
 C          1.4325497484       -0.7613940741        0.0946895557
 C          2.8307088909       -0.7201779287        0.1104999705
 C          5.7496596755        1.2698490139       -0.8759883095
 N          7.0633480145        1.3174268010       -0.8962922545
 N          9.8881860802       -0.1573571459        0.7386343685
 C         11.2052992752       -0.1040114499        0.7243225017
 H         13.0100462802        0.7329618628       -0.0867226924
 H         11.7549171587        2.2100764183       -1.6626071896
 H          9.2494975543        2.1089654768       -1.6400308592
 H          7.7070695043       -0.9217622814        1.5027784750
 H          5.2083997225       -0.9938734104        1.5609488392
 H          3.3614681832        2.5803137336       -0.3240060238
 H          0.9488040768        2.5725133087       -0.3644736684
 H         -0.9578510796        2.5606419541       -0.4215596029
 H         -3.3716520426        2.5605613953       -0.3831322003
 H         -5.1991214969       -0.9423608387        1.6227092625
 H         -7.6985066183       -0.8791588494        1.5727055906
 H         -9.2573462693        1.9907997523       -1.7108719895
 H        -11.7640252715        2.0758804288       -1.7414100559
 H        -13.0121864268        0.6820711226       -0.0865763747
 H        -11.6984991556       -0.7147379179        1.5115221156
 H         -5.2631825697        1.8238839799       -1.6519830811
 H         -3.3917655053       -1.6354366003        0.2632907326
 H         -2.4450076453       -3.2719729521        0.4222873586
 H         -1.2297010068       -5.3458693630        0.6896966376
 H          1.2479078674       -5.3420118057        0.6859666464
 H          2.4562217554       -3.2654845550        0.4074583318
 H          3.3955556791       -1.6302968724        0.2258690684
 H          5.2528393534        1.9060569923       -1.5981019678
 H         11.7035011520       -0.7635863547        1.4241622625
  66
       -105.31041058
 C         11.8954755689        0.8830948885        0.2584420779
 C         11.2611217510        1.4668123674       -0.8283013129
 C          9.8855057237        1.3724789860       -0.9271943497
 C          9.1861587970        0.6940555084        0.0728890067
 C          7.7248123775        0.5741617577        0.0160364023
 C          7.0219815152       -0.0877203651        1.0251064017
 C          5.6471144257       -0.1598627991        0.9425916351
 C          4.9920945375        0.4215607391       -0.1446186860
 C          3.5338804447        0.3832605363       -0.2786917834
 C          2.8287710743        1.4899025141       -0.7610373778
 C          1.4604957249        1.4503918131       -0.8471967488
 C          0.7230128910        0.3155169741       -0.4778829101
 C         -0.7251903534        0.3040669760       -0.5084472049
 C         -1.4644544094        1.4159900441       -0.9389457891
 C         -2.8349351226        1.4412635077       -0.8935166762
 C         -3.5415862866        0.3390626941       -0.4029509783
 C         -5.0024756994        0.3675813823       -0.3002761773
 C         -5.7895579246       -0.7470493139       -0.5941806816
 C         -7.1603316231       -0.6641020266       -0.4634280800
 C         -7.7266596874        0.5405903061       -0.0417246135
 C         -9.1796969733        0.6762104896        0.1115444912
 C         -9.7429436341        1.8866763580        0.5210871267
 C        -11.1161689073        1.9681109531        0.6559379081
 C        -11.8831009377        0.8455072003        0.3807632281
 C        -11.2283081659       -0.3103733929       -0.0205538080
 N         -9.9198075211       -0.3995921946       -0.1533656168
 N         -6.9808652553        1.6086420993        0.2395812855
 C         -5.6752995494        1.5200527069        0.1147840280
 C         -2.8277066283       -0.7770731536       -0.0057055142
 C         -1.4313258611       -0.8342610667       -0.0618084937
 C         -0.7058228807       -2.0339927457        0.3176486275
 C         -1.3734185283       -3.2203074949        0.6522059332
 C         -0.6924701969       -4.3647928598        0.9918962683
 C          0.6962571529       -4.3618371629        0.9977976653
 C          1.3752625670       -3.2138313759        0.6660013256
 C          0.7054375917       -2.0303998562        0.3262561635
 C          1.4286595519       -0.8209575239       -0.0258810287
 C          2.8216015793       -0.7486163073        0.0746084298
 C          5.7960192501        1.0463026390       -1.1018092467
 N          7.1063971543        1.1241183068       -1.0284576757
 N          9.7992642807        0.1337788066        1.1149450013
 C         11.1113417517        0.2285605387        1.1978214693
 H         12.9667987740        0.9332567635        0.3754611828
 H         11.8319760712        1.9865433783       -1.5845888170
 H          9.3365167298        1.8046337493       -1.7476750121
 H          7.5700660402       -0.5167485919        1.8477148391
 H          5.0757851727       -0.6404518194        1.7243255717
 H          3.3616098408        2.3884578690       -1.0341591801
 H          0.9538214002        2.3330731295       -1.2012225225
 H         -0.9582497942        2.2879360797       -1.3193492057
 H         -3.3717024251        2.3089514477       -1.2469667080
 H         -5.3266989667       -1.6599011669       -0.9419818432
 H         -7.8079937710       -1.4970867718       -0.6821112684
 H         -9.0940079724        2.7232710729        0.7215082459
 H        -11.5841025471        2.8900511721        0.9716765175
 H        -12.9577737730        0.8645872917        0.4739742609
 H        -11.7795823723       -1.2141740798       -0.2484500024
 H         -5.1232288013        2.4132383522        0.3800290440
 H         -3.3850962339       -1.6102859542        0.3894118875
 H         -2.4502280081       -3.2592808679        0.6378547374
 H         -1.2355633254       -5.2633258286        1.2445069090
 H          1.2410962781       -5.2580691813        1.2543416568
 H          2.4523301190       -3.2484521289        0.6599219933
 H          3.3809894703       -1.5983000214        0.4293329502
 H          5.3546601817        1.4928123500       -1.9841502272
 H         11.5561018645       -0.2449057593        2.0642244147
  66
       -105.31028142
 C         11.8316680130        0.6091530939       -0.9724315540
 C         11.0367826343        1.5092599502       -1.6666279215
 C          9.6711709731        1.4953161322       -1.4528919250
 C          9.1435797060        0.5744907693       -0.5454464527
 C          7.6998198367        0.5195725744       -0.2895721949
 C          7.1660925580       -0.4045745228        0.6108597116
 C          5.8029699361       -0.4189258577        0.8223203894
 C          4.9904258727        0.4819411236        0.1317785696
 C          3.5352662843        0.5030392183        0.2956443988
 C          2.8281756285        1.7095207681        0.2995983258
 C          1.4595263455        1.7065484538        0.3906202282
 C          0.7230396220        0.5169244219        0.4927481736
 C         -0.7252909181        0.5083103392        0.4696396439
 C         -1.4711413854        1.6886318834        0.3332705905
 C         -2.8369761533        1.6756384577        0.2070809612
 C         -3.5292028306        0.4609347844        0.1877965041
 C         -4.9799988604        0.4258377712       -0.0107919335
 C         -5.5897868529       -0.5490847108       -0.8024468829
 C         -6.9588940580       -0.5304757706       -0.9688075994
 C         -7.7012642763        0.4720568110       -0.3412152720
 C         -9.1573759727        0.5451985440       -0.5068000867
 C         -9.8961759645        1.5490681818        0.1226246455
 C        -11.2651041960        1.5833797893       -0.0656984253
 C        -11.8538806914        0.6197214234       -0.8712913697
 C        -11.0329405971       -0.3372824850       -1.4508478547
 N         -9.7266367639       -0.3793466296       -1.2792703836
 N         -7.1263326171        1.3996718775        0.4238691893
 C         -5.8214130365        1.3720985127        0.5804162599
 C         -2.8106444587       -0.7092831938        0.3540236124
 C         -1.4228209359       -0.7182638682        0.5229188686
 C         -0.6961654657       -1.9545145705        0.7519985493
 C         -1.3619993974       -3.1640516362        0.9921282106
 C         -0.6771906613       -4.3331821157        1.2240758104
 C          0.7116487579       -4.3263667851        1.2348215281
 C          1.3882656704       -3.1501280535        1.0153793274
 C          0.7144586479       -1.9471229682        0.7650237486
 C          1.4327361057       -0.7018925097        0.5600264984
 C          2.8250273374       -0.6759283616        0.4352536559
 C          5.6317031971        1.3594814359       -0.7472523129
 N          6.9297674466        1.3826196372       -0.9519187022
 N          9.9105111404       -0.2878053385        0.1205352631
 C         11.2113959526       -0.2650657069       -0.0911935703
 H         12.9015568147        0.5845502328       -1.1095704466
 H         11.4768615663        2.2085310709       -2.3634353089
 H          9.0016811006        2.1688846676       -1.9622258141
 H          7.8323709325       -1.0792820759        1.1228336856
 H          5.3668322016       -1.1072271266        1.5326360216
 H          3.3632378549        2.6452971256        0.2364913834
 H          0.9518411077        2.6570977196        0.3758915893
 H         -0.9724281685        2.6437712350        0.3125551534
 H         -3.3767785526        2.6023679225        0.0817685323
 H         -4.9874152345       -1.2972932301       -1.2984867183
 H         -7.4724981241       -1.2587764664       -1.5746729934
 H         -9.3810009489        2.2691595392        0.7368709743
 H        -11.8657497610        2.3478928043        0.4062751398
 H        -12.9183718135        0.6100637586       -1.0464378569
 H        -11.4415071177       -1.1110081310       -2.0887303561
 H         -5.4165836839        2.1385076366        1.2296259848
 H         -3.3582171553       -1.6373788686        0.3562573318
 H         -2.4391358519       -3.1935550810        1.0186885315
 H         -1.2176497993       -5.2496534165        1.4084319587
 H          1.2582530845       -5.2375887813        1.4271882496
 H          2.4650540902       -3.1692367693        1.0583797507
 H          3.3779570420       -1.6003753415        0.4056176869
 H          5.0579571273        2.0674128315       -1.3324276132
 H         11.7855517780       -0.9876102898        0.4750177734
  66
       -105.31021857
 C         11.7840544068        0.8053225019       -1.0508684192
 C         10.9618564068        1.7903040960       -1.5780343054
 C          9.6043445462        1.7311958810       -1.3246642522
 C          9.1119661903        0.6811875546       -0.5468968896
 C          7.6772646545        0.5745105221       -0.2582910901
 C          7.1759272700       -0.4735694196        0.5164127813
 C          5.8190156336       -0.5342428622        0.7590302398
 C          4.9814415277        0.4464418005        0.2255251561
 C          3.5306185345        0.4326729562        0.4254719192
 C          2.8263831624        1.6226485422        0.6340511756
 C          1.4598946074        1.6042208010        0.7486471064
 C          0.7233645781        0.4129251810        0.6706232763
 C         -0.7250737983        0.4094281262        0.6642931097
 C         -1.4678221944        1.5979203772        0.7250176749
 C         -2.8337705556        1.6084326161        0.6025558950
 C         -3.5311599077        0.4127983827        0.4035231964
 C         -4.9818806763        0.4167584568        0.2023257426
 C         -5.8135524471       -0.5627200639        0.7474482370
 C         -7.1713707520       -0.5103250048        0.5082978487
 C         -7.6796366051        0.5287895561       -0.2740799786
 C         -9.1164891586        0.6291722864       -0.5542555460
 C         -9.6179752024        1.6738233616       -1.3333885557
 C        -10.9778588128        1.7285084115       -1.5752522835
 C        -11.7931100831        0.7442736246       -1.0362192450
 C        -11.1980429317       -0.2519303515       -0.2751747379
 N         -9.9028712010       -0.3141693485       -0.0376513247
 N         -6.8904634476        1.4660105594       -0.7988742446
 C         -5.5979805774        1.4070302931       -0.5682351831
 C         -2.8161942248       -0.7713208265        0.3821350469
 C         -1.4260047637       -0.8087552548        0.5293384034
 C         -0.6992951281       -2.0658551593        0.5482705338
 C         -1.3658206431       -3.2974320511        0.6016163829
 C         -0.6819955593       -4.4893729902        0.6365879955
 C          0.7069555999       -4.4858076907        0.6307287389
 C          1.3845440301       -3.2903795053        0.5923229767
 C          0.7115607475       -2.0620287643        0.5456816903
 C          1.4313797061       -0.8008658564        0.5325361495
 C          2.8220172811       -0.7549239988        0.3919147594
 C          5.5912862604        1.4478318058       -0.5355223555
 N          6.8826798452        1.5143638338       -0.7699040314
 N          9.9050323449       -0.2624896495       -0.0410763687
 C         11.1979695198       -0.1958621801       -0.2893414829
 H         12.8487957763        0.8122237760       -1.2246343638
 H         11.3748561556        2.5895199245       -2.1769611161
 H          8.9148912582        2.4657299747       -1.7072613966
 H          7.8614901245       -1.2059825155        0.9099260847
 H          5.4070365151       -1.3219356449        1.3742669176
 H          3.3626702758        2.5567875184        0.7097457365
 H          0.9541798776        2.5445049064        0.8950434300
 H         -0.9674318191        2.5425112020        0.8617078226
 H         -3.3749826410        2.5406127445        0.6651403281
 H         -5.3962914160       -1.3422890824        1.3693060868
 H         -7.8526473965       -1.2416927851        0.9109834175
 H         -8.9335199681        2.4078685285       -1.7260857824
 H        -11.3980834273        2.5241464017       -2.1738891414
 H        -12.8592865547        0.7478561430       -1.2008090743
 H        -11.7888105490       -1.0438837391        0.1679760380
 H         -5.0073425488        2.1823330159       -1.0403853744
 H         -3.3622415810       -1.6831415220        0.2033266000
 H         -2.4426810082       -3.3289381078        0.6347696022
 H         -1.2229257907       -5.4229164592        0.6791401117
 H          1.2529768192       -5.4166892229        0.6680820648
 H          2.4617647977       -3.3168520680        0.6171538363
 H          3.3738487100       -1.6625735674        0.2094854780
 H          4.9961734445        2.2260920038       -0.9968831389
 H         11.7945362508       -0.9880704138        0.1454025907
  66
       -105.31009685
 C         11.7698818521        0.6656393032       -1.1849954565
 C         10.9493919448        1.6065034524       -1.7898752743
 C          9.5940719390        1.5823462675       -1.5187257684
 C          9.1022933736        0.6110984010       -0.6446307074
 C          7.6704688791        0.5426116010       -0.3312163977
 C          7.1741467129       -0.4212471679        0.5491662243
 C          5.8200801438       -0.4515166005        0.8113184471
 C          4.9795409367        0.4744391885        0.1912619910
 C          3.5302279703        0.4818872606        0.4017383716
 C          2.8241321506        1.6860464168        0.4867479838
 C          1.4575424546        1.6775811653        0.6022546455
 C          0.7230821822        0.4833932570        0.6483387806
 C         -0.7251483253        0.4747627598        0.6262108918
 C         -1.4711386116        1.6574774226        0.5163237742
 C         -2.8353684675        1.6456087341        0.3728317173
 C         -3.5255511718        0.4311492845        0.3104564241
 C         -4.9704272631        0.4030980746        0.0715060852
 C         -5.5572985720       -0.5555981725       -0.7566696296
 C         -6.9182463713       -0.5214853301       -0.9771007846
 C         -7.6754750677        0.4820594044       -0.3690722170
 C         -9.1202935399        0.5788858412       -0.6062050565
 C         -9.8730603849        1.5991801202       -0.0213445749
 C        -11.2291224645        1.6572815188       -0.2837432925
 C        -11.7918572112        0.6998524058       -1.1151286162
 C        -10.9589735728       -0.2753657202       -1.6451574325
 N         -9.6647037832       -0.3394490623       -1.4037531194
 N         -7.1242138522        1.3903332733        0.4354507395
 C         -5.8272007968        1.3459034359        0.6460933871
 C         -2.8075496837       -0.7423613630        0.4573052597
 C         -1.4216954275       -0.7532349376        0.6401165439
 C         -0.6926961674       -1.9945733308        0.8303261619
 C         -1.3568157121       -3.2082348525        1.0528371999
 C         -0.6701377171       -4.3855490333        1.2316149147
 C          0.7185909855       -4.3829248938        1.2029594012
 C          1.3937601399       -3.2016958491        1.0065058793
 C          0.7178604688       -1.9890825422        0.8153286894
 C          1.4339365666       -0.7366675549        0.6486664935
 C          2.8239239755       -0.7036350154        0.4999177118
 C          5.5846646996        1.3937249969       -0.6705388436
 N          6.8738036375        1.4317035946       -0.9237146316
 N          9.8937804336       -0.2906007359       -0.0648489346
 C         11.1842258755       -0.2585498990       -0.3315642031
 H         12.8327329119        0.6478955631       -1.3690670745
 H         11.3617978811        2.3452927147       -2.4619493569
 H          8.9066933953        2.2855626892       -1.9591084497
 H          7.8619843060       -1.1142949310        1.0050577238
 H          5.4126994503       -1.1724144774        1.5062970447
 H          3.3588758550        2.6238448491        0.4651095614
 H          0.9496533901        2.6268291116        0.6515017203
 H         -0.9738840635        2.6135588071        0.5235280849
 H         -3.3740060376        2.5749410138        0.2632468606
 H         -4.9426672944       -1.3013396553       -1.2410724609
 H         -7.4137903139       -1.2355560097       -1.6140388483
 H         -9.3787329933        2.3141304156        0.6161023762
 H        -11.8402210781        2.4353606972        0.1512420781
 H        -12.8454153314        0.7086605715       -1.3473017741
 H        -11.3468054877       -1.0463514447       -2.2992919223
 H         -5.4429581790        2.0971627099        1.3248412601
 H         -3.3519478568       -1.6718600397        0.4255589948
 H         -2.4330263511       -3.2332043339        1.1092889980
 H         -1.2084649275       -5.3057393056        1.4035945631
 H          1.2666485533       -5.3019153265        1.3486179265
 H          2.4712687355       -3.2245525661        1.0206534627
 H          3.3766239801       -1.6251388985        0.4170047419
 H          4.9873818201        2.1258684200       -1.1996656913
 H         11.7788114806       -1.0144979550        0.1659866036
  66
       -105.31002366
 C         11.7208307665        0.8332697140       -1.2370086350
 C         10.8811819730        1.8288773857       -1.7141485478
 C          9.5331075949        1.7634372872       -1.4158361986
 C          9.0675833012        0.6965977335       -0.6446039179
 C          7.6441630386        0.5839646450       -0.3067947268
 C          7.1671925846       -0.4929580999        0.4433498057
 C          5.8198171350       -0.5595700078        0.7329918820
 C          4.9675125058        0.4442540517        0.2705766547
 C          3.5239625715        0.4221716738        0.5164147166
 C          2.8256609652        1.6009417139        0.7964578291
 C          1.4617177667        1.5775563627        0.9390070744
 C          0.7229813688        0.3910612461        0.8210917978
 C         -0.7254420598        0.3878375056        0.8198691728
 C         -1.4688791978        1.5722144255        0.9293939363
 C         -2.8330489613        1.5889834577        0.7878222061
 C         -3.5269104960        0.4054040710        0.5172568780
 C         -4.9712323473        0.4208266552        0.2747648667
 C         -5.8195001680       -0.5812506164        0.7479598306
 C         -7.1673445219       -0.5222219989        0.4587700382
 C         -7.6485400672        0.5446003503       -0.3029431752
 C         -9.0711193147        0.6445806956       -0.6483645531
 C         -9.5423018029        1.7093712224       -1.4191086979
 C        -10.8875736316        1.7581114811       -1.7325241111
 C        -11.7191364568        0.7490034810       -1.2695788853
 C        -11.1545733362       -0.2644736462       -0.5082860046
 N         -9.8733455712       -0.3218128403       -0.2036290197
 N         -6.8442596609        1.5070726307       -0.7535972435
 C         -5.5618235376        1.4429636693       -0.4736909901
 C         -2.8128144839       -0.7779146823        0.4571310322
 C         -1.4257048932       -0.8228490271        0.6267941165
 C         -0.7006746925       -2.0807129946        0.6100059134
 C         -1.3678090237       -3.3126112615        0.6339708266
 C         -0.6834087046       -4.5048510626        0.6409915707
 C          0.7055873990       -4.5012083374        0.6372469979
 C          1.3835749476       -3.3053375270        0.6272951743
 C          0.7097099126       -2.0770576750        0.6070461965
 C          1.4284780108       -0.8157645937        0.6235797065
 C          2.8149188701       -0.7638355004        0.4516616878
 C          5.5534177575        1.4745428154       -0.4703506579
 N          6.8356745975        1.5465173003       -0.7496360555
 N          9.8771938691       -0.2582125028       -0.1882499681
 C         11.1608642076       -0.1853104802       -0.4789444373
 H         12.7791130243        0.8449730231       -1.4462095932
 H         11.2734362044        2.6411251653       -2.3094272053
 H          8.8310735328        2.5056701183       -1.7585498056
 H          7.8636346906       -1.2426668269        0.7813466396
 H          5.4269273609       -1.3708166778        1.3298093313
 H          3.3643322713        2.5308437541        0.9013049651
 H          0.9591602269        2.5102144958        1.1367829922
 H         -0.9700156827        2.5083831348        1.1191906322
 H         -3.3754814929        2.5173854330        0.8864793677
 H         -5.4231917224       -1.3850615857        1.3526100676
 H         -7.8606534744       -1.2713239915        0.8042368588
 H         -8.8462506196        2.4621270127       -1.7510739336
 H        -11.2838935201        2.5672823487       -2.3293278602
 H        -12.7745486881        0.7463557174       -1.4930317588
 H        -11.7592829255       -1.0752410500       -0.1217859026
 H         -4.9570008805        2.2406884030       -0.8866482795
 H         -3.3545924461       -1.6809128189        0.2268483010
 H         -2.4447181179       -3.3436964945        0.6689226062
 H         -1.2240394923       -5.4393884331        0.6621113886
 H          1.2513294985       -5.4327830316        0.6558732247
 H          2.4608220665       -3.3306986409        0.6564348639
 H          3.3599612953       -1.6628932836        0.2142728885
 H          4.9452218120        2.2734576398       -0.8760030580
 H         11.7717522957       -0.9870760525       -0.0831358812
