103
 energy: -163.460852333507 gnorm: 0.000063252805 xtb: 6.7.1 (edcfbbe)
O            0.82775193521717        6.95368162412020        1.79437713154170
S            0.46971287937345        6.58901072561180        0.44902238513345
O            0.11705473660705        7.63312398300801       -0.47672932162644
C           -0.83990042361732        5.35611988066008        0.47158425303151
C           -0.76083645375616        4.31103530574983        1.37531172425100
C           -1.64088490630123        3.25155729829220        1.27235221982948
C           -2.61058495421797        3.23081207544642        0.26819753473708
C           -3.52931306305431        2.09215655889813        0.12979926933618
C           -4.88054974994515        2.31291369815388       -0.14145650201741
C           -5.76342819828578        1.26220419108521       -0.30926997337480
C           -5.28414937110463       -0.03413460460549       -0.21281279858816
C           -3.92843749387757       -0.26548184311027        0.07209020426905
C           -3.05374210034300        0.78217712853126        0.24581508241972
C           -3.64381651770120       -1.74645317085121        0.11275843350324
C           -2.56956886370916       -2.21041287400233       -0.84037832028600
C           -2.46107338955340       -1.96484097135224       -2.19136088767296
C           -1.38205795179333       -2.50850986626089       -2.87587132156934
C           -0.44079571891423       -3.28584164160245       -2.21809669573160
C           -0.54753603281437       -3.53495633339754       -0.85938420793925
C           -1.61755402167473       -2.99120191494867       -0.16850521084559
C           -1.97446689793534       -3.04238875113102        1.23980499823565
C           -1.36132178009429       -3.66416582178239        2.31477408295197
C           -1.91430356110595       -3.50529392278380        3.57514118377737
C           -3.05564491288252       -2.73980436898047        3.76146260895435
C           -3.68156644943470       -2.12133924209779        2.68695144436824
C           -3.13463073171185       -2.27786021342427        1.43246109872169
C           -5.00086506376838       -2.33186301655398       -0.21129626275978
C           -5.35289969245951       -3.65831353894654       -0.32715174549277
C           -6.67434961385332       -3.96666306269533       -0.62096821112994
C           -7.61780981623428       -2.96397509147917       -0.79051990577249
C           -7.26658779168154       -1.62906803456325       -0.67362230243823
C           -5.94911411786776       -1.31377030782740       -0.38237301975491
C           -2.68745657874203        4.30647485367574       -0.61802306835119
C           -1.79614784598576        5.35849869838109       -0.52646561694813
C            1.70520460082165        5.51418185617613       -0.23903747678210
C            2.48688550979035        4.74322561010556        0.62502154885470
C            3.11446639007113        3.62254695169659        0.16413119642952
C            2.96472250297517        3.19135678118120       -1.19321294212433
C            3.32018463160502        1.89032193487541       -1.59944689299067
C            3.36316296722001        1.49424934483295       -2.99100002416456
C            3.38181493750147        0.19743698371426       -3.38166465276471
C            3.35440465540163       -0.82930953523065       -2.39873049116646
C            3.46398002538113       -0.44693121264037       -1.01391407389217
C            3.48836338129719        0.84271841589784       -0.62324400320782
C            3.42546728319825       -1.67653480835449       -0.14082853792821
C            2.40007219084836       -1.54808239301765        0.95993848746588
C            1.07829727041914       -1.17134940911553        0.85583686505330
C            0.34130675773238       -1.02496495537755        2.02299716943160
C            0.91257353099832       -1.27120053388543        3.26256184257128
C            2.24222908711689       -1.64272057112993        3.37159865125059
C            2.99300476261476       -1.76290549525848        2.21313532870364
C            4.40833418160134       -2.03191778172824        2.01546758897041
C            5.42206776119068       -2.30694302089018        2.91852762336005
C            6.70749601353858       -2.49337443241263        2.43596800694558
C            6.97933113014495       -2.40665583838499        1.07846261716127
C            5.96795378085907       -2.13586436033402        0.16677945731458
C            4.68934621247988       -1.94772458618275        0.64384461296128
C            3.19479291351735       -2.76847736775416       -1.15717340921586
C            3.04866304549570       -4.11329346444299       -0.94744861075230
C            2.91008956905497       -4.95484167770955       -2.05331938212698
C            2.92891277249433       -4.43756331136775       -3.35117458398396
C            3.07367812271944       -3.08937776737949       -3.58053502907515
C            3.20836247823263       -2.22433410653778       -2.47711617237033
C            2.29671834392665        4.09626874512555       -2.07828448155330
C            1.65528973412079        5.20364559547550       -1.60078641817663
H           -0.01178399663219        4.34303954154364        2.15082721613720
H           -1.58754319486355        2.43656984974977        1.97900244249421
H           -5.24277244204912        3.32846123183614       -0.20396363057753
H           -6.80579193408584        1.45082941724371       -0.51817060003829
H           -2.00463409150875        0.60291461457480        0.43234793551852
H           -3.19600372391642       -1.36125886001736       -2.70409370427464
H           -1.27480079200714       -2.32456958019415       -3.93473877681840
H            0.38869639679186       -3.69991063880128       -2.77109545557521
H            0.19382701660144       -4.13330631378930       -0.35162732116119
H           -0.46803477072618       -4.25403868821556        2.17445388836654
H           -1.44869529192834       -3.98139351973885        4.42571132781154
H           -3.46601519422773       -2.62558845633330        4.75402383060669
H           -4.57451649716462       -1.53034192505788        2.83117807627958
H           -4.61780660400253       -4.43868700044056       -0.19347202579957
H           -6.97158518381936       -5.00038137866865       -0.71796696506382
H           -8.64017337757655       -3.22900176701540       -1.01715065290803
H           -8.00421570500673       -0.85171287092933       -0.80640329198656
H           -3.42942998333803        4.29761278411911       -1.40266125254671
H           -1.82600525268594        6.18957121501142       -1.21375152704150
H            2.57065605417270        5.05902965355088        1.65359156404498
H            3.73871779655706        3.05397200744469        0.83452414334460
H            3.39916056801928        2.27070412008883       -3.73904384407931
H            3.40870522221854       -0.06692730184019       -4.42842113043848
H            3.52815593909005        1.08259603936017        0.42674944459328
H            0.63216896998761       -0.98040859837128       -0.10959868758244
H           -0.69049611652793       -0.71262954907770        1.97150413506694
H            0.31177607573756       -1.15925404575095        4.15305671135791
H            2.68936207151585       -1.81446252262459        4.33936761690805
H            5.21601222740627       -2.37536601806508        3.97626511586937
H            7.51041905119679       -2.70851051675757        3.12573327995063
H            7.98962377735287       -2.55315032652187        0.72631798848057
H            6.17856721412893       -2.07202587575765       -0.89098925742018
H            3.04720483499958       -4.51960673878293        0.05390086820671
H            2.79166341701480       -6.01738535415547       -1.90554166985547
H            2.82561765575759       -5.11537803560597       -4.18644865050615
H            3.08686010642455       -2.69290036870758       -4.58439660561709
H            2.22228067658191        3.85747204696048       -3.12670722933432
H            1.08846980658517        5.85192583239221       -2.25110193621056
