103
 energy: -163.549443153646 gnorm: 0.000063973705 xtb: 6.7.1 (edcfbbe)
O            0.10710629631667        3.47819810613163        3.67501209381957
S            0.02245939885268        3.17065831260852        2.27082649965412
O           -0.00210188590698        4.26032170346188        1.33024883223240
C           -1.42230925701418        2.13972459678791        2.00353122358330
C           -1.98974732019256        1.47177882666874        3.07137788672179
C           -3.08728847014051        0.65925072584597        2.85824058663058
C           -3.62476536572546        0.51707333845384        1.57868741695944
C           -4.80448975963848       -0.33102093765315        1.35762862218815
C           -4.90586725540787       -1.57464821145798        1.98265296409362
C           -6.00750582111390       -2.38987271109771        1.79480085508254
C           -7.03279620675540       -1.94755663717611        0.97460208581898
C           -6.93718120819893       -0.69589887577869        0.34776955169196
C           -5.83679398129004        0.10886537921478        0.52527883562477
C           -8.16882359691129       -0.42128681575462       -0.47914948993094
C           -8.89817250542226        0.83483886389594       -0.06505621714332
C           -9.41469343309791        1.15360199908864        1.17129051847451
C          -10.05547616793786        2.37598616813425        1.32358012167371
C          -10.17273343407486        3.25421095897152        0.25678842885392
C           -9.65358503404020        2.93615317414087       -0.98804338271169
C           -9.01262633770401        1.71870910103020       -1.14748898129270
C           -8.37736105879636        1.11227938388760       -2.30703896873904
C           -8.22034189191464        1.56723373567000       -3.60578830150720
C           -7.55947466989390        0.75845706647752       -4.51661867397220
C           -7.06337180980122       -0.48073672260974       -4.14065708380124
C           -7.21716528775040       -0.94370619712253       -2.84049232867786
C           -7.87432125292135       -0.14229133188326       -1.93324525466034
C           -8.97598046153539       -1.67754362613441       -0.25794575148822
C          -10.21151711857526       -2.00130865350628       -0.77356291721135
C          -10.77222492627873       -3.22326124180936       -0.42665792656679
C          -10.10516103053998       -4.09730205295082        0.41882361773889
C           -8.86222872492808       -3.77495050449791        0.93919202276654
C           -8.29634197946222       -2.55749897445282        0.59733461441258
C           -3.03571378543557        1.20291082518803        0.51565067143341
C           -1.93213603134649        2.00807695015069        0.72611711014411
C            1.38256862989200        2.07884641458261        1.84370765056152
C            2.08181506819841        2.27553615520195        0.66920711458167
C            3.12961786115766        1.43095979635479        0.35243313795993
C            3.47393647831050        0.38082176965145        1.20364581726355
C            4.59814940942250       -0.50704523601415        0.87584031334447
C            4.49514661599962       -1.88361584094243        1.08093616645298
C            5.54194981102494       -2.73837791481522        0.78556717928735
C            6.71838773628943       -2.20484122386535        0.28455898984462
C            6.82713751052869       -0.82119591352942        0.07902029487097
C            5.78310592118708        0.02678272644427        0.36296237050856
C            8.19196349995558       -0.47024848184149       -0.45982285502820
C            8.94432937291409        0.50839163439002        0.41017853779836
C            9.28731408732396        0.38143738282527        1.73803965792445
C            9.98813131067193        1.41766339330140        2.34065768519557
C           10.33423436425579        2.55268286796400        1.62302820293742
C            9.99010484579002        2.68316842987298        0.28705091352778
C            9.29083153733669        1.65367105250580       -0.32084600509296
C            8.79755232080003        1.49956766306190       -1.68055718712759
C            8.87745306832296        2.33502876669796       -2.78239110081562
C            8.30556866593606        1.91807832850577       -3.97384877858633
C            7.66521053978529        0.69150414055408       -4.06621876622007
C            7.58099084414091       -0.15142297425305       -2.96587073558650
C            8.14913809692857        0.26016986790322       -1.78054979371621
C            8.84935065267718       -1.82636863794564       -0.54274591395790
C           10.12132552857138       -2.13458451115526       -0.97208320422657
C           10.51847049214421       -3.46500449884223       -0.95904088137553
C            9.65578122102883       -4.46034758346642       -0.52452422899417
C            8.37555979278610       -4.15403253990355       -0.09231324159665
C            7.97222416662342       -2.82870079349617       -0.10236089085468
C            2.74547955069494        0.19491677725626        2.37951174130649
C            1.70365314301413        1.04366076421138        2.70110619604862
H           -1.57667297843220        1.62021736489851        4.05688713000978
H           -3.55155363631845        0.15136565274213        3.69036902430462
H           -4.09347354551297       -1.91408964849383        2.60857238655850
H           -6.06501624204679       -3.35245523086764        2.28074367008932
H           -5.78150841374984        1.07824206767647        0.05193422219785
H           -9.32337939470109        0.46838932667755        2.00163615441009
H          -10.46762361574234        2.64582173235070        2.28467168385343
H          -10.67585696196129        4.19944813854377        0.39933607690988
H           -9.74735283049403        3.62370988558010       -1.81543249756284
H           -8.60484459969202        2.53137576245129       -3.90354271373558
H           -7.42879308472510        1.09698566790153       -5.53416003695536
H           -6.55199614626643       -1.09388960136947       -4.86807966578582
H           -6.83209699512865       -1.90967461226611       -2.54702558675970
H          -10.73093770569568       -1.31986566035757       -1.43148613299010
H          -11.74036334071622       -3.49631746587857       -0.81976094678205
H          -10.56215065831149       -5.04212142033368        0.67467728852298
H           -8.34650123419829       -4.45848567102495        1.59725005156814
H           -3.43959379444152        1.08962170161196       -0.47947200896154
H           -1.46867438009329        2.55376173811442       -0.08081466358009
H            1.80180593482894        3.09895673624815        0.03086562666130
H            3.67902552023876        1.57392524785187       -0.56620114405801
H            3.56754558608180       -2.28922507281697        1.45782749588866
H            5.44125111878954       -3.80172715350535        0.94433652672773
H            5.88498385341064        1.09239489615740        0.21863904043429
H            9.01747245302880       -0.50341538342670        2.29621513828771
H           10.26689306609514        1.33853666479042        3.38105261029325
H           10.87955336707010        3.34584278082368        2.11339223879945
H           10.26174631473276        3.56922552321692       -0.26720873590296
H            9.37494006413965        3.29112105599937       -2.71566414922203
H            8.35911898947928        2.55664127921862       -4.84356595699440
H            7.22725860410321        0.38754373634015       -5.00556787423965
H            7.08310329810312       -1.10772609946001       -3.03713477522675
H           10.79298758638231       -1.35887533855491       -1.30996359607753
H           11.51194397940312       -3.72802819600858       -1.29103109993663
H            9.98785043305342       -5.48831947666590       -0.52320606805941
H            7.70725496126067       -4.93226072960032        0.24529766142567
H            3.01890717390359       -0.60227064782410        3.05451169036037
H            1.14899648503865        0.92907394610503        3.61913326735675
