103
 energy: -163.456065010476 gnorm: 0.000060773641 xtb: 6.7.1 (edcfbbe)
O           -0.06942058164999        4.74934752487772        3.03763776622632
S           -0.01333130688521        4.07528793885926        1.76560028235667
O            0.00510980606470        4.87091682332629        0.56503768388001
C           -1.38784597130772        2.92407375269356        1.67402915585029
C           -2.00647015267648        2.50706839748801        2.83740725887639
C           -3.02929474313304        1.58071936857226        2.76914440352719
C           -3.43784372031592        1.06468583950528        1.53828635763688
C           -4.52804774550079        0.08315752450524        1.46428668478176
C           -4.62124037356418       -0.94058714540969        2.40920471157679
C           -5.63622285420384       -1.87876940302554        2.36184281957193
C           -6.58184003251887       -1.78899787611995        1.35287434812726
C           -6.49355418147504       -0.76123642348277        0.40152533130880
C           -5.48102422643448        0.16724339926342        0.44533971656672
C           -7.62324811058857       -0.86143307963086       -0.59377568037584
C           -8.47590781713366        0.38250824908037       -0.66578204913318
C           -9.17313370653494        0.99995119475677        0.34895810001680
C           -9.89975014723242        2.14460670586342        0.04915194167513
C           -9.92328565666814        2.65380504532047       -1.24058527517243
C           -9.22248539035298        2.03502537981046       -2.26336991787475
C           -8.49499423015918        0.89299431935321       -1.97181185732702
C           -7.67353499751396        0.03735324301468       -2.81351431945803
C           -7.36815948682654        0.10354827795754       -4.16295138483611
C           -6.54221040852882       -0.86845959214042       -4.70453384942861
C           -6.02918210016047       -1.88776908933667       -3.91641807576386
C           -6.33105500252060       -1.96088875367373       -2.56296719533666
C           -7.15239812518758       -0.99646593325173       -2.02213036479732
C           -8.36988302016271       -2.07384164718224       -0.09272263788394
C           -9.50739884951735       -2.65181178445917       -0.61146268542991
C          -10.02523527031146       -3.77426284777098        0.02103065883951
C           -9.41216472126263       -4.30182390535567        1.14791897665004
C           -8.26763225803139       -3.72346906750584        1.67220363754108
C           -7.74510278737936       -2.60300546934495        1.04666441626527
C           -2.79843928328500        1.50108047575976        0.37640451570190
C           -1.77235908115968        2.42368566080670        0.44414201209479
C            1.37846804601696        2.96711004722780        1.74811988022996
C            2.02525711235208        2.67691849816823        0.54810730724086
C            3.06486087329814        1.78849124089583        0.52422380474290
C            3.49859143966611        1.11468214853585        1.70705213739434
C            4.56785236173204        0.19005517124656        1.68285522271220
C            4.77462885437070       -0.75850388558992        2.75504938423226
C            5.78161139597476       -1.66349418246262        2.75347697372910
C            6.70283328970176       -1.68851235626846        1.66986356712023
C            6.51888985232959       -0.74214564635857        0.59605662959059
C            5.50342530576200        0.14497409998848        0.58712636874669
C            7.61069767922194       -0.92823015793536       -0.43128372486612
C            8.44415078190757        0.31212953516885       -0.65298725131630
C            9.16824721540901        1.03170192762816        0.27202433985220
C            9.86825447012927        2.14912987706228       -0.16245668779507
C            9.83987050954973        2.53157697900566       -1.49559294952772
C            9.11218950217965        1.81034772056352       -2.42835760185344
C            8.41066819952547        0.69440005577581       -2.00226912087555
C            7.57172401733537       -0.24616440256022       -2.72738294352477
C            7.21799243203020       -0.31232403457255       -4.06511229508796
C            6.38578624857193       -1.33930665527322       -4.48062913350715
C            5.91370991084773       -2.28337859802892       -3.58046585634676
C            6.26427175853428       -2.22403663913728       -2.23840495306999
C            7.09206063805031       -1.20452795926034       -1.82189505380152
C            8.39909833467192       -2.07362365417656        0.15454433989157
C            9.50956825244605       -2.69213910596583       -0.35068580955276
C           10.08293836504760       -3.74004695579373        0.37468619021040
C            9.53507497568547       -4.15005357561512        1.59405771817199
C            8.42062633227704       -3.54108372534143        2.11695727977184
C            7.82551202354963       -2.48226269007695        1.39888116581497
C            2.79773811829366        1.42998932182336        2.91153367769875
C            1.77064983015609        2.33291798676718        2.92631565516517
H           -1.69082168069960        2.93545419246263        3.77581282971898
H           -3.53557073159813        1.27122619535598        3.67130422811926
H           -3.86791557511983       -1.01204597787304        3.18003005235512
H           -5.68740260567976       -2.66704910598639        3.09811714262693
H           -5.43610402795100        0.96562302260921       -0.28076627446085
H           -9.15469132662470        0.60254419665548        1.35344264022798
H          -10.45326038936153        2.64452221460880        0.83022381989289
H          -10.49590260604669        3.54562675999959       -1.44963077295730
H           -9.24353500918761        2.43558145635552       -3.26598084438314
H           -7.76490651831036        0.89535818992711       -4.78076880013949
H           -6.29392470853170       -0.83272743506218       -5.75532595856160
H           -5.38742344432396       -2.63434372981590       -4.36069694415330
H           -5.93234518446516       -2.75510741612733       -1.94836943290729
H           -9.98465456170260       -2.24051966165252       -1.48902475899450
H          -10.91686039353770       -4.24231318706731       -0.36928268788845
H           -9.83405037842093       -5.17573890866348        1.62258842792333
H           -7.79361148384556       -4.13746866973593        2.54977577921325
H           -3.09896566854217        1.09886181121715       -0.57974060365115
H           -1.27341935595966        2.77860185675286       -0.44393090215535
H            1.69565323659925        3.18496417064060       -0.34488341990157
H            3.53744873015587        1.56403243116463       -0.41826039812420
H            4.06661166110670       -0.77095389518160        3.56806828022358
H            5.89251676046037       -2.37183152182204        3.56102633388861
H            5.42004106236854        0.85457495770219       -0.22051533466804
H            9.19004043723077        0.73350934939729        1.31020483153224
H           10.44180347162431        2.72788850735589        0.54626277258936
H           10.39298981443766        3.40461967907458       -1.80966144511322
H            9.09297476275473        2.11257975950853       -3.46481733716886
H            7.58236151130134        0.42026567647187       -4.76972750452101
H            6.09967029287432       -1.40673074289371       -5.52010756546594
H            5.26560575808312       -3.07433524238019       -3.92796039255141
H            5.89695447668035       -2.95908401842804       -1.53688406065893
H            9.93796134406674       -2.37860817575768       -1.29156570035410
H           10.95946552809141       -4.23829422961519       -0.00985927390810
H           10.00286589450926       -4.96302730316274        2.13030173034444
H            7.99952409511480       -3.85985419907121        3.05820671729538
H            3.11410282425667        0.98737747094530        3.84213737620502
H            1.26461834117288        2.59451023768988        3.84263353592482
