72
 energy: -113.896775414535 gnorm: 0.000047801104 xtb: 6.7.1 (edcfbbe)
C           -2.25166266474783        0.02205935685950       -3.18476093277404
C           -3.14755546432901        0.01134859876633       -2.19234150252575
C           -2.78647262591764        0.00574640409997       -0.72481934986489
C           -1.31228537688702        0.01529968364674       -0.48234068265339
C           -0.42275880076279        0.02153487931568       -1.49652985000770
C           -0.84983157206696        0.02688132732756       -2.90189145094052
C            0.25412118089875        0.03420068523367       -3.69036286179420
C            1.43135178756378        0.03098131750794       -2.84275528571275
C            0.99761592154619        0.02361523969673       -1.50352983211678
C            1.90121573349647        0.01319526735624       -0.30305762671401
C            3.32307344938252        0.00894254569982       -0.77102586122542
C            4.50180169769374       -0.00647735833633        0.03569246890292
C            4.69394864515402       -0.02182268189250        1.40521317815695
C            5.99893450979067       -0.03683332959229        1.89408597664613
C            7.08571093708065       -0.03624299515146        1.03525303823376
C            6.91048179756902       -0.02042569192623       -0.34749726096196
C            5.62272571153421       -0.00557168185324       -0.85284300988896
C            5.12126496741096        0.01062740704819       -2.18899590610295
C            3.71667861482801        0.01873563934828       -2.13646947256810
C            2.77369022070619        0.03072905012495       -3.18798625174355
C            1.63511225564644       -1.28240355492052        0.44665124500174
C            1.87839302542216       -2.46207483080980       -0.25306953135441
C            1.62425129039598       -3.70022623697478        0.30179882002949
C            1.10920019024209       -3.78499800175861        1.58616912205716
C            0.86477372154785       -2.62991103719896        2.29713441881216
C            1.12869342954745       -1.38297097463810        1.73406929181943
S            0.76710814213252        0.00148943312211        2.76669909906434
C            1.14309082885861        1.39381076520217        1.74986215213485
C            0.89288830226975        2.63687376654773        2.32758813956641
C            1.14902459744784        3.79749805761747        1.62990082717207
C            1.66190424130179        3.72219908155774        0.34407408898621
C            1.90262435377068        2.48798397221862       -0.22530930981359
C            1.64771925374982        1.30291795873001        0.46104109131252
C           -3.38023730580431       -1.25938204135383       -0.11715698285453
C           -2.57277497269640       -2.36578416411572        0.12132935059145
C           -3.10004843684704       -3.54395613991228        0.61675553049855
C           -4.45657315502375       -3.64068220980251        0.87922780786061
C           -5.27442452313292       -2.55215001020560        0.65178615627952
C           -4.73838012321060       -1.36921739628297        0.15795318479104
S           -5.85568045752835       -0.02414732584023       -0.10610560874310
C           -4.76186189176257        1.33752630105482        0.17110377607504
C           -5.31857781339053        2.50650966974958        0.67509884097023
C           -4.51967283498959        3.60676916238880        0.91316030393372
C           -3.16133331902125        3.53555245254342        0.65176032852366
C           -2.61342627278968        2.37110914935575        0.14626589564846
C           -3.40180709173789        1.25357621449212       -0.10370225718518
H           -2.57301029189696        0.02594019490762       -4.21708829676792
H           -4.20662923983969        0.00635456546839       -2.40515558760239
H           -1.00774748632684        0.01362932937668        0.55371129973664
H            0.28516171102157        0.03981883712608       -4.76475160108096
H            3.85693613055224       -0.02265887057648        2.08720756450927
H            6.16385142922893       -0.04933956046785        2.96135072450873
H            8.08589346002398       -0.04838394324594        1.44275287641232
H            7.76493226771965       -0.02023270422965       -1.00856992918866
H            5.71821064979445        0.01503245875467       -3.08263642122521
H            3.09723804377365        0.03683686085560       -4.21717616527563
H            2.26929640937461       -2.39339963118295       -1.25774185409412
H            1.82269137449944       -4.59579369034259       -0.26698810476658
H            0.89956579824898       -4.74578411035809        2.03124736709901
H            0.46289676162125       -2.67080862598386        3.29857999391222
H            0.49243293125789        2.67037495785042        3.32989510789426
H            0.95007292473154        4.75523465901612        2.08631589963437
H            1.86925282466429        4.62218895594293       -0.21446661318705
H            2.29205481191193        2.42688906216473       -1.23102101778132
H           -1.51672873827474       -2.30771028665007       -0.09919450842844
H           -2.44802567212775       -4.38657968502168        0.79015379492216
H           -4.87662171394901       -4.55857115044951        1.26159667363759
H           -6.33410800976244       -2.60299240881802        0.85106043121626
H           -6.37918654983326        2.53742501496387        0.87357899979692
H           -4.95577973001197        4.51397805740020        1.30296302865896
H           -2.52431485994736        4.38780244844986        0.83365782091765
H           -1.55627474289853        2.33253890353431       -0.07358019462245
