72
 energy: -113.896774675352 gnorm: 0.000058961671 xtb: 6.7.1 (edcfbbe)
C           -2.22801533807367       -0.01806147348176       -3.18859080908399
C           -3.12951679225620       -0.01247396168811       -2.20126663670654
C           -2.77622342652462       -0.00454460338891       -0.73193792065783
C           -1.30324321819125       -0.00203875019488       -0.48146849938263
C           -0.40770471546484       -0.00819282642905       -1.49043373134774
C           -0.82776415906771       -0.01666882082007       -2.89798610227490
C            0.27998875169092       -0.02193735389704       -3.68099629047582
C            1.45293082758380       -0.01748950619018       -2.82767299153053
C            1.01291919822671       -0.00884131812930       -1.49037974267274
C            1.91236293414131       -0.00207580753319       -0.28647001994197
C            3.33608439947855       -0.00800248492750       -0.74899619944575
C            4.51145732386347       -0.00606106635267        0.06276718629940
C            4.69774645182644        0.00117337707453        1.43314686999560
C            6.00071289442723        0.00068980902556        1.92763970639157
C            7.09114071366368       -0.00679026160736        1.07345612785607
C            6.92181054586599       -0.01404456795971       -0.31009639852692
C            5.63616020407087       -0.01372774555500       -0.82097240945037
C            5.14032943430821       -0.02016864183940       -2.15932091468079
C            3.73552195226014       -0.01677287787560       -2.11272140244582
C            2.79653265800002       -0.02132421944884       -3.16774605311697
C            1.64792344229479       -1.28872181071043        0.47896415841459
C            1.91416817801036       -2.47653476964147       -0.19824374356096
C            1.66388837413597       -3.70846959049825        0.37198644202567
C            1.12919127534808       -3.77860044508668        1.64918041206948
C            0.86149954653751       -2.61518755227296        2.33785949036204
C            1.12180440034270       -1.37448587261429        1.75956440106350
S            0.72839609245920        0.02199693043895        2.76412864232183
C            1.12685566861509        1.40244330501157        1.73961838440433
C            0.87112354923712        2.65225347051823        2.30008711091633
C            1.14337416602898        3.80470856571689        1.59497139742018
C            1.67809258852890        3.71434159243436        0.31905678771825
C            1.92372444073554        2.47346661445052       -0.23351853009823
C            1.65280928330958        1.29643950113680        0.46047457516857
C           -3.38279231363687       -1.25875325694151       -0.11448272969289
C           -2.58519333768226       -2.36902124205566        0.13869715049238
C           -3.12424196214654       -3.53845803079867        0.64216302009461
C           -4.48283400276010       -3.62226558777332        0.89839171846229
C           -5.29096247093608       -2.52958102864987        0.65665210558607
C           -4.74316123478699       -1.35558981057724        0.15448823655452
S           -5.84883508506367       -0.00475394773863       -0.12823433453997
C           -4.74593571209547        1.35109291657317        0.14108282167369
C           -5.29611832157814        2.52886120166378        0.63165308343719
C           -4.49021515679927        3.62554682851949        0.86245138622897
C           -3.13148110237191        3.54203934352089        0.60686053970710
C           -2.59005922302558        2.36877762017987        0.11496909401869
C           -3.38539022677199        1.25439978219773       -0.12703220253313
H           -2.54343354904788       -0.02380199583348       -4.22273844280852
H           -4.18742524732403       -0.01364064242876       -2.41984319772389
H           -1.00533164195382        0.00421200753582        0.55637793773491
H            0.31635503193302       -0.02857997043430       -4.75521586282255
H            3.85758677710132        0.00699856887000        2.11132525279109
H            6.16127082190751        0.00619636453169        2.99562990289234
H            8.08960479240027       -0.00702679388600        1.48534326540984
H            7.77907505367520       -0.01983848422293       -0.96751650602717
H            5.74108019528161       -0.02666767444313       -3.05040320614028
H            3.12367560929332       -0.02804603383434       -4.19579364846454
H            2.32013472001699       -2.41945708438578       -1.19765096084543
H            1.88063089225398       -4.61067746571917       -0.17936003462892
H            0.92223881155112       -4.73448383229267        2.10591164993304
H            0.44380976862976       -2.64469545908339        3.33322576986495
H            0.45336783760181        2.69752346727261        3.29483590937013
H            0.93996131756052        4.76779748923524        2.03795323649112
H            1.89845425003079        4.60777243818968       -0.24500252470892
H            2.32967001606912        2.40066046795427       -1.23190246291644
H           -1.52757301698574       -2.32094435100281       -0.07677243904527
H           -2.47990783189814       -4.38462672069703        0.82665725499548
H           -4.91200753647963       -4.53329743048219        1.28697633950170
H           -6.35203233846027       -2.57026038197419        0.85085927942873
H           -6.35725047828216        2.56927164515989        0.82558136191801
H           -4.92122587009674        4.53949299359044        1.24205936695186
H           -2.48893114154513        4.39137492947497        0.78283782600129
H           -1.53237475539271        2.32069067887095       -0.10025083367093
