  101
       -159.03892459
 C         -0.3544841598       -0.8524671346       -0.5212449477
 C          0.7234231360       -0.0831448958       -0.7691341569
 C          0.7883763501        1.3523832139       -0.5244750513
 C          2.0069092737        1.9763112201       -0.2554697245
 C          2.0438270452        3.3254248289        0.0411495456
 C          0.8803545212        4.0738636296        0.0779685811
 C         -0.3383205513        3.4697916353       -0.2265679520
 N         -1.5293933951        4.2028661293       -0.2131001558
 C         -2.7215276973        3.7822929081        0.3479390464
 C         -3.0055186456        2.6364566557        1.0784223505
 C         -4.2987722171        2.4589779937        1.5315450744
 C         -5.2898113175        3.4068194747        1.2876320125
 C         -5.0058237387        4.5682783868        0.5979141585
 C         -3.7149528890        4.7622476964        0.1236123070
 C         -3.0847031540        5.8213892244       -0.6135862701
 C         -3.5442536953        7.0247917247       -1.1317540432
 C         -2.6649628063        7.8188532058       -1.8400816579
 C         -1.3482517866        7.4158637477       -2.0499661182
 C         -0.8680208813        6.2233102836       -1.5431109761
 C         -1.7380595336        5.4347661397       -0.8037490284
 C         -0.3748008055        2.1179156815       -0.5411784586
 N          1.9107188834       -0.7002872443       -1.2554626890
 N          1.9979542263       -2.0564266339       -0.8335294000
 C          3.2091851322       -2.4865550917       -0.3308361982
 C          3.3536110582       -3.7867496398        0.1602432718
 C          4.5734182671       -4.1954540034        0.6583256464
 C          5.6515603886       -3.3266429057        0.7137770214
 C          5.5074924899       -2.0306907778        0.2277737787
 N          6.5609047778       -1.1092742469        0.3037132982
 C          7.8647322781       -1.3098559417       -0.0998776333
 C          8.4476078168       -2.4221013077       -0.6903957702
 C          9.7881519463       -2.3511744373       -1.0172980529
 C         10.5369321169       -1.2015174411       -0.7751212374
 C          9.9568735372       -0.0826570972       -0.2119805798
 C          8.6107516760       -0.1294845975        0.1258312229
 C          7.7026117939        0.8244894664        0.6980033459
 C          7.8425304927        2.1341687555        1.1387404948
 C          6.7425200483        2.7741695949        1.6737872639
 C          5.5196318736        2.1170440159        1.7932199084
 C          5.3561087690        0.8146504733        1.3625807426
 C          6.4491371439        0.1771250343        0.7918135067
 C          4.3003963242       -1.6217911410       -0.3214236919
 N          0.9303162848       -2.8365233498       -0.7467025273
 C         -0.2464409691       -2.2906883613       -0.6719875371
 C         -1.4040514868       -3.1759822873       -0.6038329928
 C         -1.2421378943       -4.5489479888       -0.8108811908
 C         -2.3213225045       -5.4042196470       -0.7194991775
 C         -3.5819804858       -4.9209790880       -0.4099374838
 C         -3.7597372291       -3.5551898134       -0.2141445094
 N         -5.0192995939       -3.0336985734        0.1129849050
 C         -6.2038993114       -3.2819729294       -0.5500632376
 C         -6.4406234240       -4.0533505492       -1.6789609271
 C         -7.7352250588       -4.1158523446       -2.1574475777
 C         -8.7743051317       -3.4239066833       -1.5386726587
 C         -8.5406528323       -2.6349522441       -0.4303769069
 C         -7.2473070736       -2.5554735205        0.0690461427
 C         -6.6530424169       -1.8387124138        1.1622400488
 C         -7.1595761760       -0.9839767719        2.1325963064
 C         -6.2975510956       -0.4773371126        3.0842240078
 C         -4.9477964477       -0.8251667548        3.0848815782
 C         -4.4194106104       -1.6689224358        2.1265116161
 C         -5.2764762791       -2.1621334406        1.1523739613
 C         -2.6794258352       -2.6897340032       -0.3276917177
 H         -1.2409287918       -0.4291297383       -0.0868866253
 H          2.9133901972        1.3938270302       -0.2553516472
 H          2.9897613438        3.7955799335        0.2650955593
 H          0.9074423376        5.1170774265        0.3519076903
 H         -2.2400971365        1.9091478498        1.3032358016
 H         -4.5477380405        1.5661909881        2.0851812653
 H         -6.2892528236        3.2278741993        1.6545876526
 H         -5.7679577201        5.3132572325        0.4260579576
 H         -4.5704013386        7.3258845837       -0.9846942896
 H         -3.0005197026        8.7601461727       -2.2485986676
 H         -0.6878828398        8.0475169917       -2.6254437777
 H          0.1482199289        5.9130930154       -1.7330483710
 H         -1.3137402040        1.6710328055       -0.8264827773
 H          1.9811797609       -0.6406543505       -2.2739779954
 H          2.5050352373       -4.4502263395        0.1448041518
 H          4.6831121547       -5.2018650321        1.0335905748
 H          6.5879514854       -3.6376949686        1.1492223594
 H          7.8716627005       -3.3109641689       -0.8990516613
 H         10.2657826723       -3.2052839752       -1.4745543649
 H         11.5832368173       -1.1875840335       -1.0414147392
 H         10.5328321719        0.8136679129       -0.0382566539
 H          8.7959044268        2.6357020418        1.0677252040
 H          6.8303428980        3.7932573227        2.0207212922
 H          4.6817575319        2.6328098037        2.2395858098
 H          4.4123175652        0.3055522183        1.4857201103
 H          4.2039219768       -0.6282482539       -0.7257181455
 H         -0.2570704128       -4.9238047888       -1.0377122347
 H         -2.1818945662       -6.4633153842       -0.8772314486
 H         -4.4205725676       -5.5921849285       -0.3053885069
 H         -5.6395662734       -4.5801621395       -2.1752952621
 H         -7.9460331869       -4.7127893436       -3.0324464433
 H         -9.7729777341       -3.5013357726       -1.9417354376
 H         -9.3423255971       -2.0850369156        0.0392055188
 H         -8.2087141794       -0.7302393881        2.1434149337
 H         -6.6703738706        0.1891230329        3.8477995052
 H         -4.3010882289       -0.4328525472        3.8567609089
 H         -3.3762950434       -1.9469915957        2.1493147053
 H         -2.8627078732       -1.6349621338       -0.2009227916
