  74
  -115.120028140000       0.192403969960696      !
 N         10.4417186827       -1.3586627445       -0.4821558183
 C          9.3306678034       -1.0840587280       -0.3752511968
 C          7.9717402154       -0.7464937652       -0.2433541672
 C          7.2840106773       -0.1553972967       -1.3106739272
 C          5.9582607949        0.1801634434       -1.1741809638
 C          5.2618348285       -0.0782812279        0.0178247941
 C          3.8578275769        0.2633099232        0.1526739668
 C          2.9224727841       -0.7255945387        0.5916099079
 C          3.3008512772       -2.0566691702        0.7962721852
 C          2.4151567587       -2.9932413273        1.3182394561
 C          1.1361672149       -2.6062132459        1.6627220800
 C          0.7145777897       -1.3057978206        1.4080960075
 C          1.5576044368       -0.3674934997        0.8024626652
 C          1.0973387325        0.9335568462        0.4253345683
 C         -0.3069584018        1.2668377904        0.5744293371
 C         -0.7076675108        2.4318757081        1.2499068809
 C         -2.0386765593        2.7312092502        1.4560009576
 C         -3.0079739142        1.8593292973        0.9759053021
 C         -2.6158072953        0.7014627809        0.2815628675
 C         -1.2955644450        0.4001556631        0.0763315590
 C         -3.8218697464       -0.1147516358       -0.1137775335
 C         -3.7504490271       -1.5141970203        0.4497257815
 C         -3.6328662433       -1.8983330970        1.7672923465
 C         -3.5496072276       -3.2542567458        2.0548935071
 C         -3.5829607236       -4.1983866011        1.0396421742
 C         -3.6994249347       -3.8144691820       -0.2868513539
 C         -3.7812672663       -2.4635503112       -0.5815620176
 C         -3.8949919877       -1.7613376478       -1.8504361347
 C         -3.9735212059       -2.2308951726       -3.1510937922
 C         -4.0785915794       -1.3117714732       -4.1829357657
 C         -4.1045406362        0.0503877117       -3.9241831298
 C         -4.0253470690        0.5286759300       -2.6229368682
 C         -3.9212040951       -0.3824907351       -1.5953078256
 C         -4.9514079704        0.7211607798        0.4340737439
 C         -6.3042890778        0.4729043260        0.3757647403
 C         -7.1711789275        1.3937237726        0.9506331513
 C         -6.6862795717        2.5371682071        1.5695766778
 C         -5.3264216389        2.7906924758        1.6324352183
 C         -4.4536132865        1.8761301816        1.0613542448
 C          2.0189944783        1.8953967273       -0.0918474265
 C          1.5933706887        3.1365160102       -0.5766837403
 C          2.5014343811        4.1114520408       -0.9753426582
 C          3.8563214144        3.8626420836       -0.8922409922
 C          4.3038526577        2.6079185294       -0.4924695033
 C          3.4102792194        1.5863422338       -0.1545436773
 C          5.9632139998       -0.6802224043        1.0755281629
 C          7.2943667657       -1.0001596036        0.9559659726
 H          7.8037494982        0.0274202976       -2.2399287547
 H          5.4251014952        0.6104631462       -2.0091977565
 H          4.2995746911       -2.3712577779        0.5359417113
 H          2.7411028177       -4.0116103529        1.4665351646
 H          0.4501939543       -3.3082816491        2.1122663298
 H         -0.2867448493       -1.0209166526        1.6906748435
 H          0.0539560090        3.0759585257        1.6650341289
 H         -2.3190174142        3.6201138314        2.0014668579
 H         -1.0102412500       -0.4768935210       -0.4861100117
 H         -3.6059313036       -1.1616160129        2.5575877823
 H         -3.4571511871       -3.5769473282        3.0814957735
 H         -3.5166887950       -5.2477508325        1.2872964927
 H         -3.7230264442       -4.5539666664       -1.0733969315
 H         -3.9547986479       -3.2905883726       -3.3578622963
 H         -4.1422210854       -1.6602320846       -5.2034206420
 H         -4.1884521702        0.7479162698       -4.7444882204
 H         -4.0469761092        1.5898301887       -2.4205229248
 H         -6.6815944896       -0.4170150370       -0.1066394243
 H         -8.2359478126        1.2176962120        0.9146407765
 H         -7.3806284875        3.2387213516        2.0081042673
 H         -4.9532304849        3.6815662391        2.1154403279
 H          0.5367660098        3.3416744609       -0.6508182411
 H          2.1396391760        5.0644041167       -1.3309459193
 H          4.5728119834        4.6272620468       -1.1512243777
 H          5.3658540797        2.4259750479       -0.4359742329
 H          5.4515714465       -0.8534847523        2.0109050604
 H          7.8290585423       -1.4435779533        1.7833478207
  74
  -115.119983430000       0.183512957953173      !
 N         10.4938170528       -0.9540612027       -0.8911128332
 C          9.3749387186       -0.7709419214       -0.7001004911
 C          8.0114101457       -0.5416440099       -0.4426258750
 C          7.2628641418       -1.4751611933        0.2854479721
 C          5.9319178249       -1.2439695503        0.5372628185
 C          5.2902509088       -0.0887389051        0.0603206669
 C          3.8812497181        0.1403916592        0.3215816423
 C          3.3830789506        0.0550831897        1.6593825103
 C          4.2353568061       -0.1321030494        2.7527655681
 C          3.7392650906       -0.3208977780        4.0381119202
 C          2.3755108760       -0.3387670909        4.2489653655
 C          1.5088477021       -0.0833659915        3.1917648269
 C          1.9845560242        0.1905976361        1.9052321045
 C          1.1061944916        0.5648935168        0.8416085243
 C         -0.3024836305        0.7952384282        1.1046257826
 C         -0.7077017169        1.6578224385        2.1373205867
 C         -2.0384610523        1.9294426860        2.3777578876
 C         -3.0035141186        1.3254761690        1.5817479658
 C         -2.6085377251        0.4498901447        0.5546056558
 C         -1.2870927200        0.1817510703        0.3102293334
 C         -3.8130476195       -0.0642456925       -0.1944689740
 C         -3.9366344816       -1.5679833964       -0.2197606275
 C         -4.0289144455       -2.4354968271        0.8460912157
 C         -4.1513255097       -3.7936114832        0.5836804626
 C         -4.1826356291       -4.2647906577       -0.7201297610
 C         -4.0877491180       -3.3946288747       -1.7945964195
 C         -3.9622243070       -2.0389358154       -1.5405900516
 C         -3.8415828573       -0.9011176105       -2.4387967828
 C         -3.7959853008       -0.8268188607       -3.8211382265
 C         -3.6613855778        0.4181882071       -4.4145690065
 C         -3.5748853780        1.5692264379       -3.6455797003
 C         -3.6214373519        1.5027095305       -2.2593973253
 C         -3.7554949707        0.2663274519       -1.6670098503
 C         -4.9442929997        0.6177802025        0.5357054605
 C         -6.2962599111        0.5252068482        0.2934037290
 C         -7.1641053008        1.2462074652        1.1038285075
 C         -6.6808921499        2.0420032661        2.1328427890
 C         -5.3217363959        2.1400905784        2.3790406650
 C         -4.4481670977        1.4231668537        1.5745620101
 C          1.6180875109        0.7257151013       -0.4845329176
 C          0.8182023667        1.1895235406       -1.5346694666
 C          1.2903474735        1.2428187543       -2.8414870494
 C          2.5768139775        0.8313974420       -3.1239868963
 C          3.4183157466        0.4414122202       -2.0877743928
 C          2.9901120537        0.4425309324       -0.7560011931
 C          6.0531322203        0.8339681781       -0.6738087272
 C          7.3894298379        0.6205566141       -0.9149613665
 H          7.7393474853       -2.3786544917        0.6373312767
 H          5.3514660719       -1.9820405963        1.0714562293
 H          5.3037262111       -0.1220656433        2.6021110705
 H          4.4251276853       -0.4693108081        4.8583856837
 H          1.9749364467       -0.5335878228        5.2323097402
 H          0.4448856822       -0.1054590714        3.3694886826
 H          0.0525456485        2.1613234463        2.7168020657
 H         -2.3217988699        2.6167009724        3.1610756741
 H         -0.9994152406       -0.5182578283       -0.4607516121
 H         -4.0093916384       -2.0668605886        1.8615847398
 H         -4.2252927674       -4.4909339326        1.4051100403
 H         -4.2816781720       -5.3254552554       -0.8997292038
 H         -4.1127070551       -3.7669474973       -2.8079581245
 H         -3.8630736113       -1.7195072349       -4.4251974737
 H         -3.6247014228        0.4944190814       -5.4914706933
 H         -3.4699564782        2.5286505592       -4.1300958748
 H         -3.5538783542        2.3990148429       -1.6591614323
 H         -6.6725066280       -0.0955126602       -0.5067395928
 H         -8.2283791917        1.1854141800        0.9313988617
 H         -7.3758066221        2.5933989681        2.7490368309
 H         -4.9500053234        2.7612018945        3.1803613684
 H         -0.1886441399        1.5199125966       -1.3328429630
 H          0.6380740674        1.5901283193       -3.6285115387
 H          2.9418546155        0.8240098842       -4.1398799457
 H          4.4216505958        0.1224247995       -2.3232058259
 H          5.5863237816        1.7462396952       -1.0151481810
 H          7.9706607137        1.3464716356       -1.4645919334
  74
  -115.119883200000       0.165045701046147      !
 N         10.5463514224       -1.0917902857       -0.4673552991
 C          9.4219214006       -0.8758807911       -0.3639433188
 C          8.0464418274       -0.6092777785       -0.2406960098
 C          7.3265234785       -0.0974010934       -1.3275484702
 C          5.9862713979        0.1775146218       -1.1972637886
 C          5.3078483601       -0.0643044166        0.0086469764
 C          3.8931894247        0.2310106133        0.1430282322
 C          2.9935563932       -0.7726325176        0.6227079328
 C          3.4188917470       -2.0820454905        0.8688483069
 C          2.5664499997       -3.0330307976        1.4198696458
 C          1.2722779732       -2.6836380002        1.7470693027
 C          0.8048635991       -1.4068270153        1.4552258629
 C          1.6181721788       -0.4543355950        0.8315689973
 C          1.1182846697        0.8256388010        0.4381628256
 C         -0.2845412883        1.1521710685        0.6257867673
 C         -0.6553428574        2.3245076504        1.3052067072
 C         -1.9775956021        2.6534673260        1.5193097102
 C         -2.9672617684        1.8089592458        1.0328968145
 C         -2.6055536962        0.6386038044        0.3426796984
 C         -1.2922220719        0.3010952406        0.1417231107
 C         -3.8354067588       -0.1205667400       -0.0912825824
 C         -3.8709234847       -1.5302398659        0.4483066073
 C         -3.8300485465       -1.9427397997        1.7619045574
 C         -3.8666409699       -3.3051984690        2.0276689859
 C         -3.9419085639       -4.2279958321        0.9952168628
 C         -3.9817642744       -3.8157717035       -0.3273181318
 C         -3.9449727471       -2.4583704809       -0.6002039073
 C         -3.9673077432       -1.7302468492       -1.8593435038
 C         -4.0366011875       -2.1721745262       -3.1701984903
 C         -4.0403214631       -1.2316004791       -4.1879646060
 C         -3.9760703429        0.1245906012       -3.9055406355
 C         -3.9069296967        0.5751533370       -2.5939124334
 C         -3.9035408808       -0.3574190630       -1.5803417109
 C         -4.9428065558        0.7598306972        0.4337439584
 C         -6.3032634360        0.5740074067        0.3332045349
 C         -7.1440038155        1.5274274375        0.8934224256
 C         -6.6264031222        2.6404818561        1.5407352189
 C         -5.2589234419        2.8311666056        1.6455774990
 C         -4.4124045355        1.8843100697        1.0879062813
 C          2.0016924828        1.7956010809       -0.1283674080
 C          1.5282432329        3.0065436092       -0.6441684087
 C          2.3972645131        3.9931549087       -1.0975951361
 C          3.7603074707        3.7873924788       -1.0361346553
 C          4.2544285005        2.5626920883       -0.5991617086
 C          3.4001471037        1.5268058865       -0.2073538003
 C          6.0404115816       -0.5929956071        1.0840738374
 C          7.3854054744       -0.8515944706        0.9700379033
 H          7.8337245947        0.0746925444       -2.2657551605
 H          5.4294871699        0.5466676804       -2.0460846523
 H          4.4289303456       -2.3684058060        0.6198254873
 H          2.9291676178       -4.0333286804        1.6015772651
 H          0.6111269317       -3.3980570309        2.2139730802
 H         -0.2082311618       -1.1499018935        1.7223271133
 H          0.1243231149        2.9560288294        1.7061570106
 H         -2.2359183428        3.5492719378        2.0642338514
 H         -1.0285444560       -0.5828174287       -0.4207087603
 H         -3.7730999181       -1.2228352967        2.5659045639
 H         -3.8374490886       -3.6498962940        3.0508316115
 H         -3.9711829017       -5.2828401170        1.2262572781
 H         -4.0400752603       -4.5386601943       -1.1273933624
 H         -4.0870284717       -3.2270261021       -3.3956186309
 H         -4.0943906758       -1.5583437474       -5.2161161223
 H         -3.9798011704        0.8391576715       -4.7152833904
 H         -3.8575404009        1.6316665639       -2.3729272755
 H         -6.7062765279       -0.2922034669       -0.1710928667
 H         -8.2141512967        1.4011579789        0.8235072084
 H         -7.3009473849        3.3678774651        1.9680394520
 H         -4.8599776529        3.6988790352        2.1496590962
 H          0.4644414833        3.1786827054       -0.6979954393
 H          1.9988743815        4.9211265045       -1.4791067336
 H          4.4477345477        4.5623816459       -1.3393311810
 H          5.3225702256        2.4167903816       -0.5566656118
 H          5.5410538553       -0.7555192278        2.0279995598
 H          7.9440347310       -1.2348429635        1.8115278455
  74
  -115.119752400000       0.143711889256607      !
 N         10.2776788240       -1.4804680236       -1.0413567878
 C          9.1915521666       -1.1776422288       -0.8174888653
 C          7.8620086213       -0.8086268902       -0.5453352266
 C          7.0930164203       -0.1699599064       -1.5266433333
 C          5.7956865977        0.1923403987       -1.2558591730
 C          5.2064951108       -0.0856279011       -0.0110143507
 C          3.8255471340        0.2783315810        0.2459777985
 C          2.8995578549       -0.6981110416        0.7291248987
 C          3.2668835452       -2.0330399873        0.9299577546
 C          2.3878407783       -2.9537174886        1.4900305172
 C          1.1240958556       -2.5502845562        1.8700794938
 C          0.7093630197       -1.2475887031        1.6158222386
 C          1.5465766028       -0.3230800387        0.9822827644
 C          1.0836026042        0.9789463056        0.6104369081
 C         -0.3279571276        1.2923332490        0.7333354081
 C         -0.7727249851        2.4492558564        1.3940638717
 C         -2.1156474444        2.7372669421        1.5308592108
 C         -3.0515922652        1.8623339042        0.9938723482
 C         -2.6139361297        0.7028778406        0.3299585025
 C         -1.2829655954        0.4109222848        0.1966142419
 C         -3.7906475383       -0.1189621738       -0.1364316690
 C         -3.7601435162       -1.5065023982        0.4603071069
 C         -3.7555306171       -1.8631416016        1.7907526981
 C         -3.6886783466       -3.2122776227        2.1123975405
 C         -3.6254585031       -4.1766266931        1.1177895021
 C         -3.6289624119       -3.8203180238       -0.2214667134
 C         -3.6958399745       -2.4764057019       -0.5500184219
 C         -3.7094394318       -1.8008501296       -1.8382492887
 C         -3.6729824100       -2.2972552089       -3.1307686413
 C         -3.7009963072       -1.4003122707       -4.1868114616
 C         -3.7637623558       -0.0337481501       -3.9596704359
 C         -3.7990551918        0.4714236162       -2.6666647715
 C         -3.7722659030       -0.4175708369       -1.6149236067
 C         -4.9539916528        0.7259605569        0.3172495551
 C         -6.2996081292        0.4843318132        0.1553143992
 C         -7.2035022576        1.4112268756        0.6588907475
 C         -6.7618339829        2.5531939010        1.3119858063
 C         -5.4095496466        2.8000927239        1.4791198889
 C         -4.4998739710        1.8804504953        0.9781218653
 C          2.0031125299        1.9442208833        0.0973255039
 C          1.5858335547        3.2030793875       -0.3482652036
 C          2.4992778191        4.1734905902       -0.7451466699
 C          3.8517505305        3.9018563188       -0.7050951285
 C          4.2883093914        2.6298890587       -0.3502200423
 C          3.3871373192        1.6159557966       -0.0106145529
 C          5.9900098209       -0.7279833139        0.9614687795
 C          7.2954064927       -1.0758587916        0.7070295223
 H          7.5275481153        0.0276287679       -2.4957221274
 H          5.1981688471        0.6616941378       -2.0236165895
 H          4.2506887872       -2.3641677713        0.6363265658
 H          2.7065888645       -3.9746097878        1.6364130624
 H          0.4446376293       -3.2413938521        2.3456687874
 H         -0.2816830644       -0.9486258696        1.9198303060
 H         -0.0394619071        3.0985399802        1.8502288603
 H         -2.4311087243        3.6231909822        2.0618858826
 H         -0.9617686745       -0.4672625609       -0.3442634314
 H         -3.8030904672       -1.1106573748        2.5649831291
 H         -3.6861570426       -3.5137096425        3.1495816013
 H         -3.5737120206       -5.2202165974        1.3919384466
 H         -3.5789523165       -4.5755134116       -0.9916802913
 H         -3.6245001626       -3.3605524587       -3.3129618204
 H         -3.6727801972       -1.7698224713       -5.2014658091
 H         -3.7840612159        0.6461582601       -4.7984872101
 H         -3.8473353489        1.5361378503       -2.4891863841
 H         -6.6430192772       -0.4050153428       -0.3528092933
 H         -8.2631944155        1.2414172401        0.5393440606
 H         -7.4843806180        3.2594584138        1.6938752459
 H         -5.0703690010        3.6906417188        1.9871266366
 H          0.5314778074        3.4263678469       -0.3936749588
 H          2.1437222628        5.1405446832       -1.0674557207
 H          4.5734907902        4.6610565443       -0.9653574898
 H          5.3479683349        2.4268693328       -0.3322342191
 H          5.5678731818       -0.9091242241        1.9390623676
 H          7.8947625003       -1.5527433873        1.4688820737
  74
  -115.119518080000       0.112151912185066      !
 N         10.4321323826       -1.3161638696       -0.6372153813
 C          9.3220458825       -1.0536916898       -0.4967057778
 C          7.9640629242       -0.7312821794       -0.3225348500
 C          6.9691740891       -1.5275204306       -0.9035444958
 C          5.6434922985       -1.2132943996       -0.7223266018
 C          5.2587863375       -0.0874053089        0.0237091993
 C          3.8564312366        0.2461347502        0.1985590127
 C          2.9505174892       -0.7317199401        0.7191246941
 C          3.4058291829       -1.9711063751        1.1816926034
 C          2.5399552261       -2.9104368485        1.7305762197
 C          1.2037058061       -2.6026894872        1.8787960146
 C          0.7338789641       -1.3546656562        1.4855049271
 C          1.5699221656       -0.4105003980        0.8787139585
 C          1.0950692414        0.8913212013        0.5208269276
 C         -0.3113802173        1.2130030570        0.6867805271
 C         -0.7146256425        2.3362672011        1.4272150940
 C         -2.0469044445        2.6317503870        1.6318929994
 C         -3.0134527744        1.7983811612        1.0829878437
 C         -2.6176237743        0.6793944462        0.3295428789
 C         -1.2959478274        0.3805918713        0.1279312397
 C         -3.8228995851       -0.0998294473       -0.1368291134
 C         -3.7792432105       -1.5265444260        0.3571950138
 C         -3.7059219770       -1.9770921269        1.6568084130
 C         -3.6403381867       -3.3463259794        1.8780600945
 C         -3.6464013285       -4.2378166314        0.8157805750
 C         -3.7188828636       -3.7868970587       -0.4926742762
 C         -3.7842604659       -2.4223454102       -0.7213006166
 C         -3.8569916343       -1.6561716403       -1.9557897209
 C         -3.9002301999       -2.0589130345       -3.2802635818
 C         -3.9717453047       -1.0882220407       -4.2667293111
 C         -3.9993314111        0.2592407947       -3.9401290508
 C         -3.9550854258        0.6707003825       -2.6146211372
 C         -3.8843215366       -0.2917876584       -1.6319441071
 C         -4.9559447032        0.7191768060        0.4281729785
 C         -6.3098276963        0.4945101265        0.3189985479
 C         -7.1801752454        1.3919699162        0.9245992250
 C         -6.6976475127        2.4887854098        1.6245448675
 C         -5.3368520949        2.7185413181        1.7384128024
 C         -4.4606027955        1.8276974734        1.1360425180
 C          2.0006975649        1.8678857263        0.0008174523
 C          1.5461976027        3.1067768573       -0.4641461150
 C          2.4125902062        4.0430081255       -1.0170242793
 C          3.7478404773        3.7337590814       -1.1712747021
 C          4.2175039028        2.4876915049       -0.7707573943
 C          3.3814929577        1.5479013614       -0.1585238655
 C          6.2682895512        0.7058533208        0.5924482250
 C          7.5962545673        0.3886188281        0.4337360880
 H          7.2545774377       -2.3836870278       -1.4973455482
 H          4.8799851378       -1.8139469756       -1.1946520658
 H          4.4583113999       -2.2025128977        1.1326887361
 H          2.9250337346       -3.8650731734        2.0555390381
 H          0.5198467110       -3.3132298707        2.3181414342
 H         -0.2998165167       -1.1106500913        1.6726960742
 H          0.0452776826        2.9514293342        1.8872696955
 H         -2.3305088985        3.4888894547        2.2244764068
 H         -1.0067166533       -0.4654318234       -0.4784613605
 H         -3.6993030412       -1.2811353662        2.4836205324
 H         -3.5826578197       -3.7208734771        2.8894790058
 H         -3.5930450304       -5.2987017913        1.0121156292
 H         -3.7215933306       -4.4857351948       -1.3158855572
 H         -3.8795160342       -3.1068986289       -3.5399474652
 H         -4.0074387586       -1.3843287315       -5.3049183520
 H         -4.0566252544        0.9977555671       -4.7260022106
 H         -3.9772372829        1.7203960061       -2.3594962715
 H         -6.6851215485       -0.3592347587       -0.2262653578
 H         -8.2457695669        1.2341246102        0.8493868213
 H         -7.3947116496        3.1722210683        2.0868390011
 H         -4.9657808328        3.5731288503        2.2844573238
 H          0.4936913038        3.3370391917       -0.4135390503
 H          2.0286816888        4.9977858735       -1.3433554946
 H          4.4282610022        4.4407070397       -1.6211587462
 H          5.2495019178        2.2377877200       -0.9605358320
 H          5.9882381149        1.5541886406        1.1996856569
 H          8.3643267048        0.9928451716        0.8941898970
  74
  -115.119444540000       0.103755239850778      !
 N         10.5570583052       -0.5276030016       -0.9287436802
 C          9.4320057398       -0.4307813363       -0.7151733365
 C          8.0535692020       -0.3140603779       -0.4601684675
 C          7.1311697803       -1.0284600165       -1.2351068975
 C          5.7838863678       -0.9011048769       -0.9936485339
 C          5.3058529833       -0.0756636887        0.0368178383
 C          3.8835481826        0.0618532937        0.2952700218
 C          3.3749687452       -0.1863505848        1.6095307768
 C          4.1910714056       -0.7008219738        2.6226148458
 C          3.6898400464       -0.9939395521        3.8860798911
 C          2.3449944610       -0.8271733323        4.1443881410
 C          1.4999927503       -0.3687480502        3.1400447326
 C          1.9855325979       -0.0138647213        1.8767918047
 C          1.1030561176        0.4123825666        0.8358275975
 C         -0.2977036669        0.6619710740        1.1254153435
 C         -0.6631445661        1.5417033181        2.1580861087
 C         -1.9802975825        1.8746843963        2.3968575586
 C         -2.9707219934        1.3170137529        1.5979069830
 C         -2.6167662950        0.4063976275        0.5868114195
 C         -1.3090647276        0.0744831780        0.3463151430
 C         -3.8400347357       -0.0430848959       -0.1737063370
 C         -4.0667775162       -1.5351298119       -0.1647550594
 C         -4.2682342204       -2.3620455992        0.9181969104
 C         -4.4740296586       -3.7155737695        0.6862362377
 C         -4.4771683427       -4.2225094370       -0.6045920360
 C         -4.2734859655       -3.3931729907       -1.6960187799
 C         -4.0674865826       -2.0418667393       -1.4724958845
 C         -3.8347244358       -0.9408330382       -2.3943814292
 C         -3.7191377064       -0.9109649919       -3.7743399737
 C         -3.4754479511        0.3047159402       -4.3936162925
 C         -3.3505401906        1.4702437334       -3.6524256995
 C         -3.4675241736        1.4485119483       -2.2689480760
 C         -3.7109706522        0.2416000293       -1.6510524049
 C         -4.9344300075        0.7304255840        0.5192817097
 C         -6.2836591475        0.7332883301        0.2455658847
 C         -7.1150504462        1.5263987422        1.0262496243
 C         -6.5992746751        2.2972319598        2.0585791584
 C         -5.2430324618        2.2979356094        2.3377157569
 C         -4.4055169253        1.5094245495        1.5623418156
 C          1.6048220674        0.6274696819       -0.4878793744
 C          0.7881289115        1.1175156477       -1.5132794245
 C          1.2840367826        1.3753067929       -2.7862761750
 C          2.6288599182        1.2120323674       -3.0440971866
 C          3.4764200549        0.7840124803       -2.0284349229
 C          2.9957622207        0.4529497619       -0.7567725655
 C          6.2442046300        0.6209596229        0.8156389785
 C          7.5922327566        0.5159371975        0.5691667034
 H          7.4898318887       -1.6808026516       -2.0180618898
 H          5.0778310246       -1.4755981846       -1.5752430062
 H          5.2320580705       -0.8971388399        2.4184848764
 H          4.3540445487       -1.3708632846        4.6489537442
 H          1.9382621792       -1.0707182145        5.1143499765
 H          0.4411598138       -0.3047823262        3.3365390438
 H          0.1191787851        2.0091744269        2.7385016459
 H         -2.2324065316        2.5771650790        3.1773522816
 H         -1.0531321682       -0.6467138072       -0.4163169143
 H         -4.2692030296       -1.9659410213        1.9235093822
 H         -4.6358408634       -4.3810590522        1.5212890495
 H         -4.6422219710       -5.2785903605       -0.7604415204
 H         -4.2783165942       -3.7926307702       -2.6993342721
 H         -3.8129403440       -1.8157559107       -4.3562984098
 H         -3.3797732763        0.3457896325       -5.4687836475
 H         -3.1593306792        2.4061297261       -4.1566918297
 H         -3.3690509347        2.3560492076       -1.6902524833
 H         -6.6850581493        0.1325996630       -0.5576445486
 H         -8.1762738767        1.5430782622        0.8273223242
 H         -7.2663931432        2.9056421668        2.6514153777
 H         -4.8456219376        2.9000871973        3.1412294214
 H         -0.2521924174        1.3219670558       -1.3172080402
 H          0.6127917526        1.7246900103       -3.5562991674
 H          3.0346202651        1.4348016318       -4.0192602525
 H          4.5349907579        0.7278791191       -2.2274318971
 H          5.8907625875        1.2810557547        1.5943453752
 H          8.3038398709        1.0738478353        1.1602218304
  74
  -115.119404190000       9.941832974753284E-002 !
 N         10.4758377898       -1.2946659789       -0.4704150332
 C          9.3616788507       -1.0361142150       -0.3529086417
 C          7.9988032269       -0.7156872645       -0.2195211846
 C          7.0182925759       -1.5819807016       -0.7196934880
 C          5.6873718181       -1.2722340817       -0.5741210389
 C          5.2816252320       -0.0823036850        0.0526345229
 C          3.8746680239        0.2422457079        0.1959339249
 C          2.9821721932       -0.7008225307        0.7990363105
 C          3.4545388135       -1.8848749079        1.3746219894
 C          2.5985228642       -2.7921154554        1.9896853511
 C          1.2530373688       -2.5050593601        2.0850882694
 C          0.7650297544       -1.3043289291        1.5823016841
 C          1.5947019498       -0.3919761824        0.9204541017
 C          1.1068470466        0.8753481086        0.4721519452
 C         -0.3007111120        1.2021549207        0.6389629101
 C         -0.6909126046        2.3448773213        1.3536621724
 C         -2.0198397894        2.6346563372        1.5883586906
 C         -2.9930000179        1.7811092191        1.0851381630
 C         -2.6101746861        0.6545233017        0.3365754968
 C         -1.2910039994        0.3546679323        0.1168623579
 C         -3.8235862063       -0.1204599704       -0.1143913949
 C         -3.7726496698       -1.5711068377        0.2972559576
 C         -3.6555312597       -2.0950696219        1.5658653508
 C         -3.6005917686       -3.4752619842        1.7080514237
 C         -3.6630567543       -4.3061089504        0.5995737419
 C         -3.7794355268       -3.7818736551       -0.6780247780
 C         -3.8322053368       -2.4060221543       -0.8279772033
 C         -3.9390823230       -1.5724798192       -2.0154750139
 C         -4.0351392812       -1.9000107735       -3.3578356335
 C         -4.1253608648       -0.8749337133       -4.2860712511
 C         -4.1197256143        0.4525642215       -3.8851384832
 C         -4.0238863385        0.7887260007       -2.5414048662
 C         -3.9346852090       -0.2282382484       -1.6168759634
 C         -4.9444984805        0.6748818277        0.5073427505
 C         -6.2976917176        0.4264961687        0.4585121086
 C         -7.1554214095        1.3084655793        1.1032219331
 C         -6.6617680183        2.4155803472        1.7784679039
 C         -5.3016854079        2.6702338914        1.8296918634
 C         -4.4379425499        1.7933370920        1.1904357886
 C          1.9976786774        1.8193461758       -0.1239540328
 C          1.5250135314        3.0171961683       -0.6713748510
 C          2.3743597820        3.9113950197       -1.3131888466
 C          3.7083894106        3.5972192395       -1.4698467910
 C          4.1970633069        2.3924818074       -0.9749123765
 C          3.3797951332        1.5008281797       -0.2729099593
 C          6.2772426547        0.7824293196        0.5362354531
 C          7.6104733837        0.4714236321        0.4140660329
 H          7.3193533631       -2.4909918140       -1.2196371364
 H          4.9351531408       -1.9310609464       -0.9824073718
 H          4.5122062936       -2.0965568860        1.3629783398
 H          2.9981254908       -3.7046231458        2.4051499359
 H          0.5758881646       -3.1935030076        2.5677599341
 H         -0.2781650407       -1.0705362720        1.7240780335
 H          0.0769812047        2.9803701070        1.7707506854
 H         -2.2946836714        3.5040397823        2.1669556762
 H         -1.0089760785       -0.5054492531       -0.4730117525
 H         -3.6056716039       -1.4468769972        2.4290720319
 H         -3.5095287403       -3.9066633370        2.6940280613
 H         -3.6166821025       -5.3768132739        0.7345132321
 H         -3.8246426502       -4.4332718684       -1.5380629377
 H         -4.0408926862       -2.9320107974       -3.6755880860
 H         -4.2029080059       -1.1121457849       -5.3369758047
 H         -4.1926400823        1.2344952589       -4.6264850590
 H         -4.0211605992        1.8227207320       -2.2278487573
 H         -6.6818902827       -0.4350930854       -0.0678527159
 H         -8.2201329691        1.1305098121        1.0778852304
 H         -7.3494335349        3.0878724426        2.2702873804
 H         -4.9217738376        3.5327954281        2.3566334883
 H          0.4722782668        3.2454984225       -0.6127687313
 H          1.9787120886        4.8369389525       -1.7037073234
 H          4.3742603149        4.2685023463       -1.9905485625
 H          5.2288195205        2.1363403316       -1.1592704648
 H          5.9818787167        1.6841541808        1.0523339821
 H          8.3673285397        1.1319353613        0.8114039621
