78
 energy: -126.708923300402 gnorm: 0.000042846696 xtb: 6.7.1 (edcfbbe)
N           -6.82967427348304       -3.46779573193655        0.13333628127329
C           -5.54376777420408       -3.06092099839634        0.39998936635922
C           -4.46772939864902       -3.94905269773612        0.25838433260184
C           -3.18052978709982       -3.51297553763385        0.44976031545168
C           -2.86219970883827       -2.18798891165248        0.78676019610245
C           -3.96067778798190       -1.31943185434566        0.95151722060591
C           -5.27031613027047       -1.74855726800188        0.75903755751757
O           -3.86224941327067       -0.00797022038333        1.31775908427435
C           -2.66999766851299        0.55879936507192        1.62737452058858
C           -2.68885327456420        1.88173906422274        2.03713440260990
C           -1.49642576768511        2.51889037884997        2.38258315080948
N           -1.51295440483831        3.81269548708167        2.84510536799165
C           -0.29391331692948        1.81247050659750        2.32141906533424
C           -0.29235785222429        0.49639774641229        1.89410909003052
C           -1.47324078718570       -0.16529083513941        1.52741111065359
B           -1.45482022482573       -1.59771018701330        1.01045485207615
C           -0.02367356319736       -2.14056184320185        0.77095759005123
C            0.33825442949726       -3.31341277786279        0.09160769783462
C            1.64239592405396       -3.64030827260398       -0.19931417937568
C            2.68740294858856       -2.80453415775926        0.21637311269938
N            3.97983730606520       -3.05851771584120       -0.21308785955326
C            5.04478447890815       -2.17068293187255       -0.27505249368759
C            6.32326023648624       -2.63130506032163       -0.05052659793603
C            7.41746726920759       -1.75258289986324       -0.02570236316517
C            7.23714057252726       -0.40753425397521       -0.17206184017789
C            5.94874723100897        0.11619167859969       -0.43691721807272
C            5.70929919625670        1.48470944615440       -0.55997736412469
C            4.43157523120777        1.99546024274704       -0.77676904557408
C            4.16748110733544        3.38594113450427       -0.74381960120040
C            2.89161719278659        3.85998096603306       -0.86237946003698
C            1.79392222446192        2.98998925546122       -1.05435463224060
C            0.47096276615573        3.48630928875094       -1.07526780702536
C           -0.63431011132898        2.65322562933114       -1.23817696406273
C           -1.95404552481591        3.12542409735066       -1.21663851329938
C           -3.05900781102192        2.27156079107578       -1.42164530203301
C           -4.37745972912167        2.74042013642807       -1.40997467287532
C           -5.44318695089984        1.88031950801256       -1.63863645144059
C           -5.21357870543696        0.53799997619922       -1.88918249140842
C           -3.91530500283442        0.04334682985921       -1.90057570605363
C           -2.82573447124418        0.88432785050469       -1.66319086227488
C           -1.49551553312216        0.40496347552393       -1.65558480412606
C           -0.40516112626660        1.25088397680254       -1.44457876294222
C            0.90818474563385        0.76759814268448       -1.42367023659569
C            2.01784843287366        1.59711964997614       -1.20152040158093
C            3.35192059253860        1.08640242316898       -1.03777039374338
C            3.62454457404407       -0.27479595474628       -1.01820970504074
C            4.84898964712363       -0.78553898106119       -0.58806913812729
C            2.37435255523003       -1.70658824039077        1.00860410331679
C            1.04795827528455       -1.33985870624084        1.21437603446633
O            0.90907710905157       -0.13465071982756        1.84067414591574
H           -7.00885902976094       -4.45848214312846        0.16103900722365
H           -7.57249799745667       -2.88874942167602        0.49007234008203
H           -4.66506163776812       -4.97970356900480       -0.00039035760299
H           -2.37724974673151       -4.22645785719686        0.35467854242432
H           -6.07011753743357       -1.03604989637064        0.89616929507661
H           -3.62822963412853        2.41020269192815        2.08549220481032
H           -0.63837349452383        4.31121219020354        2.82554733884100
H           -2.32705453248724        4.36225797508115        2.62388487494218
H            0.63753211735951        2.28736286453320        2.58868509275024
H           -0.44391902257410       -3.96166157178461       -0.27011588171125
H            1.86727617779454       -4.52248660936121       -0.78200837155207
H            4.21147032242371       -4.03024239342927       -0.36649484812921
H            6.48536880388835       -3.68178540731557        0.14723318632833
H            8.40297370778413       -2.15504841246266        0.15827991128998
H            8.06874193867355        0.27631003823345       -0.08795901919847
H            6.53603026961420        2.17251518137444       -0.44534292867535
H            4.99278367617010        4.06524596190850       -0.58416924015237
H            2.69806936077507        4.92179928264836       -0.79630742899078
H            0.31614637602238        4.54834384476522       -0.94262324877220
H           -2.13285161448444        4.17890802072623       -1.05199440120692
H           -4.56018225524933        3.78898994717820       -1.22051141192098
H           -6.45339438741568        2.26355972623807       -1.62342825070927
H           -6.04113252316539       -0.13148362693652       -2.07144356715475
H           -3.73783043970184       -1.00580684293433       -2.08821682601261
H           -1.32319003968756       -0.64915507413551       -1.82011887500158
H            1.03855593509821       -0.29313302450077       -1.57039635996633
H            2.85439303595423       -0.96875579210422       -1.30310669249518
H            3.14631565117044       -1.06470022015922        1.40151593911712
