  68
        -98.98125429
 C         -6.4023818787        0.3364813893        2.2559092432
 C         -5.3516805728       -0.5443031019        2.4787094255
 C         -4.1883824705       -0.4420837481        1.7518479722
 C         -4.0248699148        0.5634949862        0.7772718258
 C         -2.8279961523        0.6366505103       -0.0006821756
 C         -2.0491144773       -0.5891696515       -0.2106772446
 C         -2.7536657978       -1.7756399568       -0.6109528067
 C         -2.3093098926       -3.0597566846       -0.2449073811
 C         -3.0228119379       -4.1841395585       -0.5975197528
 C         -4.1987320785       -4.0739077497       -1.3261674890
 C         -4.6618647233       -2.8151389391       -1.6843284788
 C         -3.9598797183       -1.6853749343       -1.3297067145
 C         -0.6445345454       -0.5491681891       -0.0395635804
 C          0.2225382921       -1.4559163097       -0.6985364756
 C          1.5830689448       -1.3417283863       -0.6074483938
 C          2.1717236813       -0.3228983615        0.1568042218
 N          3.5535414009       -0.1881667134        0.2234405334
 C          4.1289020622        1.0855923058        0.2870064096
 C          5.2741790051        1.3061373366        1.0528072032
 C          5.8423315691        2.5638119038        1.1069541104
 C          5.2781793546        3.6194958358        0.4090112598
 C          4.1377600065        3.4065752272       -0.3488668395
 C          3.5659095912        2.1515270202       -0.4162087114
 C          4.3720640832       -1.3217704164        0.1956438197
 C          3.9818456114       -2.4884866750        0.8542614009
 C          4.7892607140       -3.6083185952        0.8218951745
 C          5.9965536258       -3.5836703831        0.1423122989
 C          6.3903553864       -2.4266154405       -0.5104511457
 C          5.5870807540       -1.3034988543       -0.4901233333
 C          1.3300027871        0.5716505237        0.8342711863
 C         -0.0298432899        0.4657187473        0.7360572323
 C         -2.3602919348        1.8517144486       -0.5891097916
 C         -1.5174482688        1.8290344459       -1.7205482947
 C         -1.0119388349        2.9916307269       -2.2544123806
 C         -1.3125176083        4.2207675196       -1.6817857782
 C         -2.1292973985        4.2666073085       -0.5591976728
 C         -2.6471343552        3.1108300498       -0.0209590862
 C         -5.1082518779        1.4391557988        0.5595882711
 C         -6.2714845466        1.3214681855        1.2859490891
 H         -7.3157469095        0.2505220489        2.8246995512
 H         -5.4481585553       -1.3155774138        3.2294538213
 H         -3.3717334531       -1.1217437000        1.9426102930
 H         -1.4223740226       -3.1570302301        0.3637389379
 H         -2.6676176307       -5.1591066998       -0.2948290222
 H         -4.7534245850       -4.9580312834       -1.6021728024
 H         -5.5796044702       -2.7205716350       -2.2470108240
 H         -4.3212398168       -0.7118833096       -1.6257399882
 H         -0.2018076228       -2.2068465783       -1.3471249291
 H          2.2197527282       -2.0207798565       -1.1561326514
 H          5.7086859052        0.4866669314        1.6063209233
 H          6.7272161480        2.7221218239        1.7053939089
 H          5.7243573350        4.6009998072        0.4550618284
 H          3.6935950588        4.2221038374       -0.8999713276
 H          2.6837289009        1.9852580712       -1.0167006621
 H          3.0469714945       -2.5033340418        1.3948523075
 H          4.4771680512       -4.5040503016        1.3381295631
 H          6.6259368269       -4.4599466638        0.1213388613
 H          7.3269102712       -2.4005876649       -1.0474521064
 H          5.8899153903       -0.4061950922       -1.0096153923
 H          1.7694609900        1.3446079070        1.4477160424
 H         -0.6548859088        1.1508417389        1.2871240396
 H         -1.2932486306        0.8812552334       -2.1862108278
 H         -0.3777489229        2.9476332640       -3.1286580269
 H         -0.9106034455        5.1309802913       -2.1005167033
 H         -2.3527589419        5.2177818023       -0.0970771618
 H         -3.2395665550        3.1578900869        0.8805012540
 H         -5.0376659293        2.1785888146       -0.2242395668
 H         -7.0932612761        1.9961532397        1.0919570919
