76
 energy: -120.253469032910 gnorm: 0.000045295254 xtb: 6.7.1 (edcfbbe)
C            0.95108649198418       -6.49307936912547       -0.27672870221019
C            2.18392469403323       -5.89633713853624       -0.47866473789561
C            2.29684849956812       -4.51078624522263       -0.47089224070913
C            1.18521073670811       -3.70957638600681       -0.24738561956095
C            1.16731195977227       -2.26409870902599       -0.19532645440400
C            2.34800593889143       -1.43629623809139       -0.10223690051273
C            2.31742509192650       -0.13732264582276       -0.64088367810888
C            3.41131311588678        0.69078387466844       -0.56736494396894
C            4.57653329925183        0.26302579056650        0.07322999697744
N            5.69739049714400        1.10104629839549        0.14951051086716
C            6.98844385891644        0.75111024884068       -0.18768345629478
C            7.47200214114346       -0.43931611089748       -0.71517573971924
C            8.82455228205944       -0.52204969481852       -0.98808067804524
C            9.68017724464380        0.55233068073383       -0.75357573890945
C            9.20066298838765        1.74862177803316       -0.25189328427361
C            7.84633517604009        1.85566606914766        0.02993640324624
C            7.01835422456953        2.92124652516951        0.52744653895310
C            7.27610699073146        4.22397592179223        0.92940829059763
C            6.22424188987234        4.99571149133323        1.38860437761140
C            4.93309014465093        4.47735241856710        1.46326886548453
C            4.65176527694641        3.18240909607077        1.06961802345402
C            5.69934612599460        2.41057215260295        0.58344673760923
C            4.60607102258122       -1.00658486440758        0.65234121039391
C            3.51368142232793       -1.83959936349764        0.56774251723732
N            0.00058728064841       -1.62549887213935       -0.20721237166969
C           -1.15822614174142       -2.24418024241645       -0.12540269122876
C           -2.38407782918352       -1.47745212394569       -0.10875840094079
C           -2.35623376447964       -0.07928783419387       -0.15945142650732
C           -3.52513049501763        0.64646759433498       -0.14195229129944
C           -4.75738689208242       -0.00825540745756       -0.07766364629295
N           -5.94760980903031        0.72967049498529       -0.06138790010566
C           -6.97548681028806        0.58356595136234        0.84862092832309
C           -7.06593202560828       -0.25365987300842        1.95297512100754
C           -8.20917464767612       -0.17959067322139        2.72689364982409
C           -9.23747790448398        0.70927451981889        2.42136128956686
C           -9.14269869081802        1.56219346305973        1.33682866204058
C           -8.00433858788987        1.50654095122575        0.54545246802080
C           -7.56611505573165        2.23928656839365       -0.61229558598103
C           -8.13465527382771        3.24898374266240       -1.37553958510262
C           -7.43225061385610        3.73027018216480       -2.46530744865860
C           -6.18720027272278        3.20562827212370       -2.80499496679323
C           -5.60129129830926        2.19844183098745       -2.06082760566224
C           -6.29022068480704        1.72908342552482       -0.95003993787732
C           -4.79350724818577       -1.40300610206240       -0.02685300080994
C           -3.62233811451657       -2.12584044317911       -0.03962470841878
N           -1.21734113303450       -3.58225402760332       -0.06383454581284
C           -0.10306166659200       -4.32110133528494       -0.13133585390644
C           -0.18553110469535       -5.72011310534101       -0.12049999299032
H            0.86702211216512       -7.57000136570385       -0.26376352089393
H            3.06105015862396       -6.50168144342445       -0.65143764681657
H            3.25245112382102       -4.05496501346671       -0.67978977476025
H            1.41971933527981        0.18835046795996       -1.14371700143537
H            3.38465712214970        1.66868502009296       -1.02503728803242
H            6.81236559104881       -1.26975986847742       -0.91564671196755
H            9.22599590571297       -1.43824499590225       -1.39567961945843
H           10.73165706976146        0.44811261551496       -0.97698129506029
H            9.86292367642886        2.58493334678883       -0.08603352394054
H            8.27863536095086        4.62230178868942        0.88738734405366
H            6.40380966607667        6.01306485415528        1.70349925640596
H            4.13503866564728        5.09907370313405        1.84164749731601
H            3.65260203014994        2.78223575976411        1.14897375047463
H            5.48500388654372       -1.32102953395844        1.19596797944000
H            3.53881709692269       -2.79238893413377        1.07407570379417
H           -1.39861505139409        0.41724536169933       -0.19699665743465
H           -3.49864510409133        1.72591166879504       -0.15554529432545
H           -6.26657506872539       -0.93261697054107        2.20740579771937
H           -8.30452408813736       -0.82188454949005        3.59001435536045
H          -10.11632427054433        0.73598202783320        3.04850548316555
H           -9.93371330558775        2.26143423995376        1.11155144684879
H           -9.10665067390262        3.64555958702177       -1.12394749005036
H           -7.85610116877965        4.51828737055705       -3.07004680193660
H           -5.67006392595062        3.59094309756046       -3.67137945185871
H           -4.64497943674243        1.78465789551136       -2.34196224810475
H           -5.74729593032522       -1.90857601584817        0.00070508810467
H           -3.63635917730319       -3.20483214609920       -0.00880724221026
H           -1.15590002442073       -6.17194505727324        0.01566142050143
