76
 energy: -120.323375935605 gnorm: 0.000044733811 xtb: 6.7.1 (edcfbbe)
C            1.00324018869284       -6.37591133737094       -0.46308580262308
C            2.24284265259988       -5.72618981754483       -0.57857838683262
C            2.32571281965616       -4.36158794978066       -0.50526162857524
C            1.16382632599843       -3.59433020615315       -0.30348278962842
C            1.11666124313177       -2.17450992362861       -0.18458251891821
C            2.32730699741672       -1.34727388229274       -0.09769389056698
C            2.41016661255795       -0.17321691411855       -0.84433133809890
C            3.53300108961266        0.62515046872705       -0.77867784669180
C            4.59019464874466        0.27757161243992        0.06095959538236
N            5.73068274526511        1.08470046707993        0.13527278856768
C            7.03804124379908        0.64802787742791        0.02773354713780
C            7.52731654285829       -0.62516339589966       -0.22824914536511
C            8.89736729812383       -0.78517696432764       -0.31750750004550
C            9.76711710462789        0.29286503557779       -0.16654731761821
C            9.28526606258571        1.56644052455123        0.06335173142130
C            7.91182460515833        1.75206580558191        0.15640324978478
C            7.08271192374119        2.90778839701411        0.36046035085399
C            7.35614449610919        4.25326730999370        0.57129697938101
C            6.29948954367375        5.12115590173996        0.76393489412614
C            4.98481718115077        4.65948714190662        0.76344160997635
C            4.68793871763256        3.32564069874332        0.55522465912847
C            5.74437399258889        2.45279406589637        0.33631216509963
C            4.49787576865765       -0.87819625575055        0.83432280622697
C            3.38059848336693       -1.68455457289590        0.75072434197880
N           -0.02794929380656       -1.53332177914796       -0.14388683377612
C           -1.17412064899087       -2.24364519218846       -0.13806948738545
C           -2.42019058016256       -1.47798289095471       -0.10016932444010
C           -2.39352734531503       -0.08628902285728       -0.01054170978191
C           -3.56820555685218        0.63506899261266        0.02550770394563
C           -4.79657493629877       -0.02226055914057       -0.03392378457894
N           -5.98977460305421        0.70865017563108       -0.00184134875953
C           -7.06995023309786        0.45969560452077        0.82429400549990
C           -7.21702539237569       -0.48946723892271        1.82618308851901
C           -8.40409569153968       -0.50279760327308        2.53407509392403
C           -9.42248397994761        0.40950961564976        2.26499695500650
C           -9.27162516810867        1.37298249231527        1.28733842136316
C           -8.08741281986934        1.40582690057001        0.56198308360676
C           -7.59193219841757        2.26009120268170       -0.48164515332733
C           -8.13145544563582        3.34110500037939       -1.16716724932574
C           -7.37859289096530        3.93871298499879       -2.15861956387913
C           -6.10902578520174        3.46178536653358       -2.47877896871588
C           -5.55145824209632        2.38764699568913       -1.81106375820279
C           -6.29311072957753        1.79848829713842       -0.79661002394688
C           -4.82746306321665       -1.41387732589257       -0.12597906289567
C           -3.65120883554019       -2.13204889323726       -0.15547991263195
N           -1.24760817522368       -3.55533501334837       -0.13876724639812
C           -0.09805002439617       -4.24900968947526       -0.24079274864754
C           -0.14926313631169       -5.65749958843785       -0.30519563249731
H            0.96602323812597       -7.45403358012131       -0.51784954212873
H            3.13534289197311       -6.31392760931325       -0.73367626601303
H            3.27594841455172       -3.86217580289097       -0.62005861257742
H            1.58854021206824        0.09133500075033       -1.49228407286820
H            3.60469988538229        1.51458769282087       -1.38601548848310
H            6.86230665218803       -1.46450347768903       -0.36436868699514
H            9.30258309394783       -1.76741766844478       -0.51294348783633
H           10.83190172505146        0.12671410060772       -0.24002932410327
H            9.95846111539257        2.40465515766425        0.16391397620023
H            8.37593094935380        4.60777544990520        0.58870030103258
H            6.49050123530267        6.17162948458318        0.92765092059409
H            4.17906712641267        5.35871247745014        0.93351413205536
H            3.66667407264808        2.97655414160851        0.57592802680719
H            5.29853638358201       -1.12921014935119        1.51362823710290
H            3.30622519268732       -2.56015581450440        1.37885603654557
H           -1.43857915230784        0.41274953333371        0.04327777022699
H           -3.54505086681018        1.71059600987528        0.11819996799443
H           -6.42685535291238       -1.18826481376525        2.05591976078847
H           -8.54339424851012       -1.23443736071854        3.31672014237310
H          -10.33661421266564        0.36521073618327        2.83880236325677
H          -10.05369081137643        2.09109906870947        1.09066500914655
H           -9.12204212680209        3.69957843015094       -0.93004754329523
H           -7.77886288715778        4.78183926270095       -2.70250503677055
H           -5.54916893321810        3.93933249911273       -3.26981924607561
H           -4.57506955252782        2.01430125095710       -2.08036564535038
H           -5.77820155420731       -1.92137975372054       -0.19146485136396
H           -3.66267763356854       -3.20815898269868       -0.23107051448897
H           -1.11578577924149       -6.13303727105553       -0.24411298371122
