53
 energy: -86.293259103777 gnorm: 0.000046867334 xtb: 6.7.1 (edcfbbe)
O            1.25560232977218       -3.90812460103702        1.07051696642539
C            1.30630043838480       -2.71188315772474        0.63700114019470
C            0.07953894682447       -1.96867577138609        0.45904770732835
C           -0.06503778583607       -0.88780050673535       -0.43946026396322
C           -1.26162014125996       -0.23191160742633       -0.56904774959597
C           -2.38664354933444       -0.64635938194723        0.16146152513879
N           -3.60025676452397        0.02725942008883        0.02415124022147
C           -3.77750192580935        1.39294762602091        0.10037847338141
C           -2.84741127989430        2.39078907225051        0.36900556010369
C           -3.29801979943142        3.69796720012528        0.41179195694240
C           -4.63948363857285        4.00943846102599        0.20427117873032
C           -5.57705256963809        3.01613210641951       -0.03588203252679
C           -5.14864748217934        1.70026287292012       -0.08392883909150
C           -5.82279390761413        0.44223910279734       -0.28436514703209
C           -7.14019601772056        0.09282000185690       -0.52720193093373
C           -7.44746367296278       -1.24788925786800       -0.70649394474471
C           -6.45679146771078       -2.22582303991974       -0.66215346233185
C           -5.13384953718515       -1.90063069141471       -0.42152498052139
C           -4.82424371547185       -0.56134381895291       -0.21068136679567
C           -2.27705968079772       -1.76531422862469        1.00412515119575
C           -1.08222671403770       -2.41784615952510        1.13410885089469
C            2.59424081309663       -2.11861243527487        0.30477455723183
C            3.67045930844301       -2.97733322188953       -0.01123446514781
C            4.92024649122960       -2.48778501169301       -0.30311118332079
C            5.12375938136412       -1.11240586401807       -0.26285851510023
S            6.62852847641898       -0.28184532847254       -0.58851046391104
C            5.88072419568287        1.26677080491197       -0.24454500204685
C            6.51098946896360        2.49936519079977       -0.29925281048951
C            5.77210423661730        3.63001168150189        0.00051936574660
C            4.42938856128601        3.52784788498523        0.34679893744802
C            3.80344889685713        2.29552401923994        0.40087974707536
C            4.52535708196106        1.14489535820311        0.10611456358445
C            4.08335692815070       -0.23088755772065        0.09368756529322
C            2.83101907214530       -0.73808145025497        0.38748017034144
H            0.76589749747373       -0.59870845801287       -1.06456484598328
H           -1.36224304570776        0.57708989186235       -1.27791608546586
H           -1.81081077958385        2.15289602434448        0.54940241914685
H           -2.59588317345125        4.49236154103041        0.61499911018198
H           -4.95403988758526        5.04147075790531        0.24250991900719
H           -6.61825863140742        3.26129801876797       -0.17742003327375
H           -7.90918673297259        0.84782018933023       -0.58162250796858
H           -8.46936537999060       -1.53998053869291       -0.89593544948966
H           -6.72438475831511       -3.25876889483767       -0.82588102450053
H           -4.36701313748180       -2.65956037261949       -0.41355873149747
H           -3.13442818923419       -2.07857171564212        1.58153179440965
H           -0.98027578554839       -3.27331087148105        1.78583924192958
H            3.47779106446881       -4.03985633940097       -0.02925629831163
H            5.73010401509893       -3.15367202594668       -0.55984565216130
H            7.55330636905521        2.56755716487423       -0.56927988296186
H            6.24512579894676        4.59968379700913       -0.03542487501382
H            3.86915220135383        4.42176652294334        0.57666790466032
H            2.76119310851276        2.21985501886012        0.67088591390434
H            2.04931403726958       -0.07291899890351        0.71887917587501
