53
 energy: -86.380890121155 gnorm: 0.000041030183 xtb: 6.7.1 (edcfbbe)
O            2.05585779131900       -2.64485551556896       -1.18286539001917
C            1.76607452776922       -1.49890799193851       -0.86558914921233
C            0.36051707510393       -1.10058934065301       -0.62857197462817
C            0.01068558017073       -0.16106949847805        0.34204403666831
C           -1.31407187784245        0.15460629021711        0.56197591106569
C           -2.31837010135621       -0.44764246437610       -0.19712739567516
N           -3.65708008853558       -0.11105776528318        0.01209936611218
C           -4.70408732781958       -1.00407786924272        0.16255532065528
C           -4.68394173280709       -2.39056491964125        0.21668626120194
C           -5.88445667846886       -3.04699514374995        0.41456487056969
C           -7.07986070601309       -2.34783163437687        0.56639924741614
C           -7.10183156178170       -0.96720956216204        0.54249479157326
C           -5.90766616335253       -0.28594639954028        0.34524948137835
C           -5.56465510729043        1.10886752839335        0.29405721529220
C           -6.31007633488174        2.27733127707697        0.38480491550145
C           -5.65798074501152        3.48921771105304        0.26843921260996
C           -4.28399471181289        3.54328581288609        0.04538850043562
C           -3.52202124379419        2.39363347548688       -0.05045269856623
C           -4.16700323040634        1.17342270540385        0.09349580737181
C           -1.97263042337934       -1.39406702555883       -1.16273174735528
C           -0.64964009975204       -1.72585848842217       -1.36053881500871
C            2.80763892135710       -0.45791324816722       -0.70900557212252
C            2.54888360531222        0.88996437491446       -0.99551898274047
C            3.54460155720772        1.83761143911980       -0.88658245818587
C            4.80891533854512        1.43599998770207       -0.47891738634742
S            6.19416253796444        2.47580565310368       -0.26965742061099
C            7.18550795217876        1.10629629583472        0.19923850860738
C            8.52654436369641        1.15618576167898        0.54193247561816
C            9.15980612499334       -0.02294071293723        0.88724140183800
C            8.46585942551612       -1.22967235176329        0.89010835893998
C            7.12962492330931       -1.27700633782227        0.54787096868186
C            6.47003316838903       -0.10243830250614        0.19571300414381
C            5.09581742073844        0.08633794035758       -0.19596809762909
C            4.08512735077343       -0.85440974732533       -0.32827606067744
H            0.77783772657501        0.29533724981070        0.94949548932344
H           -1.58301518991083        0.85584616325874        1.33724562908409
H           -3.76212724624441       -2.94406058857006        0.12143133452838
H           -5.89423178489838       -4.12644342302150        0.45631167181981
H           -7.99780783657404       -2.89708338981814        0.71585874239037
H           -8.02499841680074       -0.42441289271759        0.67998099922977
H           -7.37783675776037        2.23415879173902        0.53899364732774
H           -6.21854178325142        4.40975079928451        0.33928189200943
H           -3.80303102267669        4.50498004258044       -0.05869753910365
H           -2.46175421890129        2.44979901291592       -0.24405285678046
H           -2.74429737686801       -1.85225986943949       -1.76225673778146
H           -0.37178044929892       -2.45953409369737       -2.10318049089939
H            1.56692136915173        1.18458798345568       -1.33217889913533
H            3.35090215955920        2.87386958489407       -1.11614525771264
H            9.05793708988134        2.09524787156787        0.53687664950777
H           10.20496657702108       -0.00596340507329        1.15720030668720
H            8.98051535663344       -2.13855484788523        1.16360878289979
H            6.59282549927349       -2.21342701757490        0.54934068339869
H            4.27123077505495       -1.89934990544128       -0.12966955371335
