102
 energy: -170.230939836620 gnorm: 0.000049786802 xtb: 6.7.1 (edcfbbe)
C           10.15838321249782       -2.95277529142095       -2.80479872140531
C            8.78513321092434       -3.06393350355272       -2.69214184668205
C            8.08568436612382       -2.25604097571375       -1.81049984320160
C            8.75135452861985       -1.32614798682516       -1.01805280158267
C           10.14234514677449       -1.20448237545971       -1.15820877707708
C           10.83542257327592       -2.01545966099948       -2.03886994453841
O           10.87275928266893       -0.28290057748448       -0.44867055466485
C           10.19080921328080        0.53500938184156        0.41882424673627
C           10.93517037376575        1.46111379621551        1.12723303418983
C           10.31603701591499        2.30615302783975        2.03614480487690
C            8.95232421807507        2.20902467928585        2.23960391566970
C            8.20131141156469        1.28346429730478        1.53331528309225
C            8.80244141562818        0.44237561347724        0.60227074678155
N            8.07844229603750       -0.49858289913673       -0.12413579094440
C            6.68109415799208       -0.63635567685022        0.06725372299903
C            6.17107262476917       -1.78056436553598        0.68056118332120
C            4.81520502573560       -1.91758190253465        0.86995196163764
C            3.93151342552392       -0.91282678230402        0.44874625933107
C            2.51667261370603       -1.05865536806270        0.64152312280479
N            2.04540694964208       -2.18403861301258        1.28451972450350
N            0.79346678876292       -2.38797374316336        1.32269915841486
C           -0.12126008944311       -1.57124614038807        0.87288745708555
C           -1.48681410679571       -2.03684092454014        0.76812241686365
C           -1.99510004710876       -2.94443954624031        1.70576416389401
C           -3.28856492051639       -3.40780934112343        1.60896607928759
C           -4.10629858441258       -2.98922973170692        0.55998729833736
N           -5.43934098755133       -3.45461347362814        0.46610704289215
C           -5.70313372373972       -4.80672350072182        0.25414998680751
C           -4.68962351855461       -5.73698268115138        0.04814916983141
C           -4.98624634366320       -7.07451597533212       -0.15915193810421
C           -6.29886781675152       -7.50627686013393       -0.17461803479089
C           -7.32318589161155       -6.58765411213837       -0.00032191021427
C           -7.03285261530685       -5.25099373877892        0.20552645552775
O           -8.09866845905368       -4.39508078633266        0.34230032483166
C           -7.82154355367627       -3.06111032005774        0.51737225416516
C           -8.90293970868668       -2.20658004663944        0.63633313459813
C           -8.70273775349859       -0.85012665459496        0.84439839051503
C           -7.41503647637084       -0.35920222463373        0.94497640149857
C           -6.32831771435148       -1.21038084961585        0.82393269337411
C           -6.50935514559038       -2.56974188152461        0.59036686188995
C           -3.59947281842133       -2.11346142384215       -0.39794231831830
C           -2.30982671906287       -1.64055712818401       -0.29483821729593
C            0.36534611028817       -0.25918431054210        0.40117350161888
C           -0.48104320578953        0.87858198473248        0.17807801616517
C           -1.69862252222821        1.04769947451545        0.86230686919786
C           -2.48029973622128        2.15764507594625        0.64249861032792
C           -2.08507379585926        3.13175061949012       -0.27402867299332
N           -2.90989355172687        4.25518693778151       -0.52181948869835
C           -4.16351155450857        4.09535054320988       -1.10781045475489
C           -4.65138512851111        2.85073320481744       -1.49392678867891
C           -5.90388928713526        2.72754482755799       -2.07324387535370
C           -6.68956108388618        3.84436102205052       -2.28581952494519
C           -6.20918625600993        5.09624958542572       -1.93138806676599
C           -4.95863410439554        5.22514119565632       -1.35426544278041
O           -4.53906719241444        6.49829781202704       -1.05430991702003
C           -3.30234933195663        6.63757984158493       -0.47265653439330
C           -2.89727230155990        7.92209978670291       -0.15772291005452
C           -1.67260941733211        8.13721427276323        0.45678175223120
C           -0.86699747527742        7.05817904174144        0.76775427877260
C           -1.26710457893023        5.76949224615956        0.45346511484394
C           -2.47925464123019        5.53712426222284       -0.18880444699606
C           -0.86663654809977        2.99080917349773       -0.94065425689865
C           -0.07516916847461        1.89108327237392       -0.71020790016493
N            1.67207990087352       -0.13457072960528        0.24272972564202
C            4.45561684324630        0.23515870000186       -0.16524987877063
C            5.81127599303008        0.37032457571979       -0.35365655458756
H           10.70659539342617       -3.58246876687345       -3.48756451547004
H            8.24534615972899       -3.77967083326780       -3.29286142442212
H            7.01322137522683       -2.34215796719788       -1.73496845246567
H           11.90468222146481       -1.89422832226353       -2.11275771886905
H           11.99921124904040        1.50155254867520        0.95511660450164
H           10.90360556760378        3.02659899611795        2.58283673860715
H            8.46089595364577        2.85194233194520        2.95356359959917
H            7.13983581075166        1.20555892207406        1.70723509840594
H            6.85105953944452       -2.55405458998877        1.00687654299820
H            4.40861296038109       -2.79536940471331        1.34789781106441
H           -1.35983872373468       -3.26553851526850        2.51719689842137
H           -3.67836412580034       -4.09290640506970        2.34747657953605
H           -3.66218848328822       -5.40905289034658        0.04542045708881
H           -4.17979847184155       -7.77528237377811       -0.31114754702658
H           -6.53399782118791       -8.54715778234727       -0.33098320063493
H           -8.35901795573731       -6.88765223451267       -0.02431183017797
H           -9.89451530839839       -2.62585802192205        0.56965844437158
H           -9.55137847165651       -0.19078079601794        0.93471277861497
H           -7.24492580221332        0.69148016492765        1.12279986743142
H           -5.32839390822386       -0.81887889505118        0.91772215548635
H           -4.22361893820873       -1.81359491309907       -1.22693513428564
H           -1.91963016773905       -0.98057816343652       -1.05489284366485
H           -2.00372118549215        0.31989332514306        1.59843783797179
H           -3.40463015627494        2.28747950732757        1.18659407720228
H           -4.04101863235291        1.97482024108960       -1.34421625736307
H           -6.25933122552140        1.74935527269579       -2.35863434014484
H           -7.66681144276288        3.75228948218605       -2.73263497869128
H           -6.78880254522030        5.99036300109807       -2.09908384778206
H           -3.55801339210585        8.73996139573689       -0.39861366626808
H           -1.36285265160364        9.14216984635183        0.69616138102347
H            0.08059434918624        7.20986138495507        1.26139765042538
H           -0.63721905789790        4.93332493776298        0.71261416363583
H           -0.55490829950100        3.74949327205451       -1.64390413241471
H            0.86416887720783        1.77688985342215       -1.22894117241324
H            3.77404025250750        1.00687315772307       -0.48798096302595
H            6.21339491898317        1.25225260663739       -0.83076447844188
