102
 energy: -170.230535959358 gnorm: 0.000164010542 xtb: 6.7.1 (edcfbbe)
C            9.76921075897848        0.17265236633212       -4.02754966292117
C            8.41290326300397       -0.06057983573635       -3.89932831193775
C            7.84701374647553       -0.24261602304102       -2.64785381683424
C            8.62957697724853       -0.18573667437411       -1.49888696001549
C           10.00938307959528        0.02654274328650       -1.64234731299437
C           10.56820661697633        0.20913648245160       -2.89444310588168
O           10.86331849064118        0.05180757167352       -0.56688407573478
C           10.31847174099149       -0.13405127495585        0.68030144672425
C           11.18644357515316       -0.10346123057301        1.75688228288096
C           10.70353087631355       -0.25984551127667        3.04761274907632
C            9.34774191049048       -0.43335830019285        3.25269914476081
C            8.47344931878676       -0.46578074331303        2.17843776384403
C            8.94318220230289       -0.33408297016971        0.87547654335144
N            8.09334516143178       -0.36224205975305       -0.22670770600102
C            6.69953359827154       -0.55391614697360       -0.05489491937504
C            6.21101670053095       -1.77946836262114        0.39602627240606
C            4.85776171426933       -1.96264272819554        0.56976497602932
C            3.95666568163802       -0.92607177929782        0.28748897313635
C            2.54319897257164       -1.11815550224098        0.46413678315472
N            2.09467720825690       -2.31805351401894        0.97307283488227
N            0.84349938888787       -2.53917009757295        1.00978729102848
C           -0.08538091177731       -1.68752299247335        0.67060707526967
C           -1.45250443196052       -2.15124827838295        0.55835047936173
C           -1.94197150761941       -3.12007390615146        1.44208647949892
C           -3.23628980771167       -3.57967525881560        1.33696298243458
C           -4.07320926767476       -3.09489239544955        0.33238069421832
N           -5.40593103137766       -3.55708501831199        0.23234351375408
C           -5.67031175987110       -4.90063887290540       -0.03140364848669
C           -4.65889358324508       -5.81729535730910       -0.29975752898313
C           -4.95585551695956       -7.14564319945562       -0.55890193362031
C           -6.26718576694528       -7.58156647893040       -0.56534753493346
C           -7.29010186019944       -6.67513324069023       -0.33051075984327
C           -6.99929785410849       -5.34742557073428       -0.07299720977673
O           -8.06477123760459       -4.50243355592523        0.12056919067776
C           -7.78840235335851       -3.17682834711903        0.35043436988054
C           -8.87047856797768       -2.33416845386862        0.53217763133616
C           -8.67165512486007       -0.98780766518970        0.79823745322483
C           -7.38406350025483       -0.49585992025770        0.89493200916738
C           -6.29696198040240       -1.33524129915888        0.71185140178028
C           -6.47686211594993       -2.68320214791095        0.41870616251879
C           -3.58421600284029       -2.15595307947332       -0.57401395967982
C           -2.29387287373453       -1.68703253973591       -0.46118933387207
C            0.37745870137144       -0.33137668007681        0.32017795362842
C           -0.48433999072162        0.80998427895546        0.20552115835726
C           -1.70106677710926        0.90246410333217        0.90615406911548
C           -2.49551109419964        2.01894959383821        0.79088060257824
C           -2.11397366734914        3.07745351191612       -0.03303792742930
N           -2.95249785933403        4.21069000707705       -0.17192798970857
C           -4.19883468074187        4.09464868961950       -0.78178355734398
C           -4.65932466932619        2.89188276063117       -1.30853942911145
C           -5.90529206378790        2.81091266680668       -1.90885409215959
C           -6.71125748924135        3.92972634108310       -2.00200548826792
C           -6.25893714006070        5.14262270026952       -1.50397222717109
C           -5.01515613266353        5.22957502565598       -0.90493353314018
O           -4.62393995660399        6.46743145687371       -0.45599751834086
C           -3.39636304752606        6.56155298568197        0.15344327277421
C           -3.02188871518193        7.80728232693800        0.62355180020664
C           -1.80609629130875        7.97314886595479        1.27006553959872
C           -0.97724412556712        6.88270382842461        1.45463360442483
C           -1.34689795870426        5.63258330146500        0.98555957999868
C           -2.55150353673875        5.45248477585604        0.31307781388725
C           -0.89697877970924        3.01215881383246       -0.71353161489610
C           -0.09321281182409        1.90445567005991       -0.58780218366971
N            1.68367559844355       -0.17184235221909        0.16890807899626
C            4.45867968750752        0.30168280913261       -0.16886459704005
C            5.81195070941649        0.48546648084591       -0.33431743568998
H           10.21270191425904        0.31802183722141       -4.99984914127838
H            7.78283399167992       -0.10581375123618       -4.77428785586154
H            6.78959600743564       -0.43487735359911       -2.55776100407911
H           11.63207983350588        0.37423095578211       -2.96058558293020
H           12.23663505573643        0.04813964395185        1.56290324525719
H           11.38756963291818       -0.23731069927225        3.88112542149728
H            8.95758689964990       -0.54236446682947        4.25289915563653
H            7.41578146184078       -0.59015732991229        2.34887446907203
H            6.90394982866377       -2.58118242215696        0.60641544483916
H            4.46770142844578       -2.90634259430301        0.91806864758714
H           -1.29260210578437       -3.49200952868902        2.22000074946320
H           -3.61194306528904       -4.31278246999273        2.03555501862353
H           -3.63256012590306       -5.48630218146530       -0.31133167654201
H           -4.15060313935574       -7.83558657778791       -0.75900912264509
H           -6.50241619109200       -8.61558934494474       -0.76189995463851
H           -8.32539683504898       -6.97742275950674       -0.34638983870962
H           -9.86141421375966       -2.75526255245645        0.46744335657382
H           -9.52081628710995       -0.33765521757994        0.93720637890124
H           -7.21424592302633        0.54610605991136        1.11844584715445
H           -5.29725227283802       -0.94319965565654        0.80473523200401
H           -4.22152961193374       -1.80433623855313       -1.37196593766990
H           -1.91768800008357       -0.97560807928101       -1.18087164770325
H           -1.99532931130161        0.10778912168482        1.57426553662803
H           -3.41946015500354        2.08782231269827        1.34660003039693
H           -4.03263036999759        2.01646842910794       -1.25080340175209
H           -6.24044447819054        1.86420190938169       -2.30384634081444
H           -7.68340063818104        3.86979174383953       -2.46516742352123
H           -6.85587783447297        6.03834338663796       -1.57401189374103
H           -3.69916718722124        8.63382616512930        0.47653882442196
H           -1.52057407423504        8.94837586025432        1.63133318574112
H           -0.03513067765375        6.99516967300309        1.96874340321020
H           -0.69934722202352        4.78504489838144        1.14545677758927
H           -0.59613999870239        3.83600300911291       -1.34447416135231
H            0.84508511329975        1.84752539783048       -1.11785515912168
H            3.76494379267203        1.10150488970174       -0.37666425237026
H            6.19820921172433        1.43406479434556       -0.67799419455431
