  102
       -170.21794537
 C          9.7085491771        0.7554124086       -3.9600466347
 C          8.3576541491        0.5309852920       -3.7890874713
 C          7.8611543764        0.1469526620       -2.5527074962
 C          8.7072352425       -0.0070195633       -1.4613515087
 C         10.0816585415        0.1850712521       -1.6561385861
 C         10.5715103028        0.5705300242       -2.8903092749
 O         11.0023302922       -0.0135525278       -0.6585136336
 C         10.5307449835       -0.4020707815        0.5703304506
 C         11.4687332051       -0.5863070680        1.5692661088
 C         11.0688675128       -0.9429844488        2.8483303571
 C          9.7245755028       -1.0926534776        3.1224957195
 C          8.7801977264       -0.9114261492        2.1236091889
 C          9.1662633310       -0.5893115042        0.8283726287
 N          8.2407704612       -0.3954800605       -0.2019300475
 C          6.8647387008       -0.5809195529        0.0269675987
 C          6.3799825185       -1.8274742402        0.4227307146
 C          5.0325192737       -2.0088123835        0.6464883422
 C          4.1427006132       -0.9467295093        0.4788678771
 C          2.7207603947       -1.1400326794        0.7108242797
 N          2.3026570600       -2.2944100124        1.2478209834
 N          1.0486939972       -2.5777442896        1.1612275478
 C          0.1576476846       -1.7105982232        0.7110459395
 C         -1.2089321263       -2.1499325342        0.4680942617
 C         -1.7883987910       -3.1259541349        1.2778743714
 C         -3.1201354946       -3.4561628536        1.1301894857
 C         -3.8923009389       -2.8242726081        0.1589578169
 N         -5.2716168317       -3.0869134602        0.0436470105
 C         -5.7445190541       -4.3468156495       -0.3273447647
 C         -4.8946164065       -5.4187728098       -0.5665646348
 C         -5.4004058368       -6.6557216830       -0.9372775137
 C         -6.7602945451       -6.8382794904       -1.0836765111
 C         -7.6202358865       -5.7694869389       -0.8761461799
 C         -7.1216100001       -4.5335745905       -0.5099235030
 O         -8.0309768323       -3.5149801605       -0.3589169063
 C         -7.5546003389       -2.2977795602        0.0601959387
 C         -8.4838292758       -1.2975438260        0.2777936119
 C         -8.0786342541       -0.0529071493        0.7374118921
 C         -6.7428532695        0.1757795437        0.9961231485
 C         -5.8057018974       -0.8211777839        0.7717279803
 C         -6.1910038125       -2.0614134733        0.2782691685
 C         -3.2978561900       -1.8996556635       -0.6980254508
 C         -1.9704128807       -1.5664597192       -0.5471682933
 C          0.5860976069       -0.3571599917        0.5610453759
 C         -0.3422135234        0.7658988055        0.5310149733
 C         -1.5356293587        0.7335099827        1.2562337354
 C         -2.4678555290        1.7345147711        1.1015384968
 C         -2.2282359272        2.7907627681        0.2233908845
 N         -3.2322123820        3.7536779182        0.0077625100
 C         -4.4496087209        3.3667923638       -0.5603738138
 C         -4.6663210854        2.0825467515       -1.0438651985
 C         -5.8846487249        1.7316248490       -1.6050262996
 C         -6.9016851694        2.6592353931       -1.6984623309
 C         -6.6890431788        3.9553582093       -1.2526643053
 C         -5.4734564938        4.3128202466       -0.6993552758
 O         -5.3215574444        5.6219713566       -0.3164764053
 C         -4.1004117239        5.9983850111        0.1865072703
 C         -3.9487217999        7.3273720131        0.5349685769
 C         -2.7559798427        7.7759391670        1.0833409306
 C         -1.7254225968        6.8827177956        1.2941444345
 C         -1.8708244605        5.5488970316        0.9434245544
 C         -3.0480990557        5.0904709720        0.3666961618
 C         -1.0094876734        2.8638878185       -0.4463034585
 C         -0.0739359475        1.8622655056       -0.2880136143
 N          1.8818897648       -0.1385896431        0.4564904276
 C          4.6294382125        0.2998977900        0.0829690210
 C          5.9767729586        0.4816024461       -0.1397798581
 H         10.0991655616        1.0597357654       -4.9180628395
 H          7.6752125819        0.6483992206       -4.6167325625
 H          6.8056015882       -0.0437437197       -2.4394494418
 H         11.6349718208        0.7148854950       -2.9940055383
 H         12.5086276319       -0.4390207896        1.3253550217
 H         11.8076506923       -1.0878781733        3.6204490166
 H          9.3948463240       -1.3479319046        4.1177184597
 H          7.7323674059       -1.0131567317        2.3579671200
 H          7.0696703756       -2.6500424597        0.5411976598
 H          4.6441986657       -2.9696491511        0.9454030097
 H         -1.1862261597       -3.5906142948        2.0430040929
 H         -3.5774284879       -4.1848271270        1.7827244090
 H         -3.8286021916       -5.2840692983       -0.4734887345
 H         -4.7173690080       -7.4723068359       -1.1134849285
 H         -7.1588851606       -7.7990943378       -1.3680374581
 H         -8.6860125638       -5.8732197404       -1.0022541002
 H         -9.5223099510       -1.5149830672        0.0857967561
 H         -8.8090140067        0.7234303418        0.8997163791
 H         -6.4182977193        1.1331854577        1.3729618293
 H         -4.7645651284       -0.6341412404        0.9826190356
 H         -3.8929637773       -1.4391164822       -1.4725394457
 H         -1.5147948122       -0.8560398240       -1.2210218546
 H         -1.7238421265       -0.0732548776        1.9484169270
 H         -3.3978734090        1.7048790646        1.6493977839
 H         -3.8763269240        1.3507396185       -0.9828214054
 H         -6.0312359762        0.7257020032       -1.9661103061
 H         -7.8542749537        2.3869681988       -2.1237075778
 H         -7.4554407222        4.7096880043       -1.3309224294
 H         -4.7804416339        7.9948470897        0.3761518253
 H         -2.6468011760        8.8147434502        1.3512450865
 H         -0.7989944289        7.2123528793        1.7385348464
 H         -1.0653419300        4.8564973900        1.1315230429
 H         -0.8155831341        3.6929281485       -1.1104934136
 H          0.8605706090        1.8928155159       -0.8268553777
 H          3.9363819599        1.1187762789       -0.0307544166
 H          6.3575434805        1.4481319524       -0.4356375667
