102
 energy: -170.283888531939 gnorm: 0.000058984004 xtb: 6.7.1 (edcfbbe)
C            9.51811867991943        0.31940435964210       -4.08714910379858
C            8.17574547312542        0.05835220774964       -3.89820509968934
C            7.68333711606810       -0.20121936301243       -2.62814625750413
C            8.52371411610260       -0.19020139461343       -1.52097567081059
C            9.89049708292173        0.03671619781592       -1.73015910067940
C           10.37729479563025        0.29669799999334       -2.99816864824506
O           10.80933047292884       -0.00262609396195       -0.70800369360459
C           10.33997126275524       -0.28723018207776        0.55337641997809
C           11.27720079336292       -0.33520928625136        1.56909772277658
C           10.88221393036978       -0.58192431078385        2.87576922151148
C            9.54255701448896       -0.75999800461704        3.15686815610219
C            8.59946991154688       -0.71390938804450        2.14122229480459
C            8.98115345668446       -0.50166234954980        0.82168490208991
N            8.05775833977508       -0.44720290200992       -0.22789938264840
C            6.67790898703055       -0.60032203514621        0.01570540399951
C            6.18125714356466       -1.79225990261915        0.54258174435623
C            4.83187660582690       -1.93308744774211        0.78910721461302
C            3.95159961808053       -0.88662934829012        0.50967024011084
C            2.52939267969340       -1.03081098864913        0.77935309583833
N            2.10810024547401       -2.07598614989964        1.50529285660546
N            0.84935753721908       -2.35506058428956        1.47331549346764
C           -0.04312117761859       -1.56470764568849        0.89792774404259
C           -1.39526438985595       -2.07302183337087        0.71388828748916
C           -1.92184191538645       -3.00387328993785        1.61092878566456
C           -3.20557556841524       -3.48280338402482        1.45046818494545
C           -3.98365369725908       -3.05385967497310        0.37721139306557
N           -5.30153808459878       -3.52998365620658        0.21025084267859
C           -5.54838232498502       -4.88015056149982       -0.05340651549318
C           -4.52805950163233       -5.81863802556740       -0.14909063409010
C           -4.80895658539782       -7.15037870662882       -0.41554745192074
C           -6.11195290970351       -7.56580842887562       -0.60191637200792
C           -7.14016662080657       -6.63620570252602       -0.53876002110476
C           -6.86479570220632       -5.30723523810064       -0.27530745454788
O           -7.93542091631012       -4.44249700233328       -0.26251757372557
C           -7.67562572574401       -3.11900210391671        0.00779691161501
C           -8.75961218409225       -2.26127919454503        0.04253802813282
C           -8.58070626469632       -0.91764641035131        0.33997784540070
C           -7.31454370993889       -0.44653151556522        0.62360275944704
C           -6.22460718650834       -1.30304997845634        0.58590217953106
C           -6.38099928764980       -2.64374010946468        0.25532734291786
C           -3.45087169439397       -2.14733663155952       -0.53772395354694
C           -2.17195366661396       -1.66039589008334       -0.37066557156081
C            0.39508070379752       -0.25533973468834        0.53418208885608
C           -0.48547711378519        0.89724074467742        0.38758650196216
C           -1.65765830931979        1.01620263741633        1.13679299180660
C           -2.48295567006452        2.10756864306295        0.96949707523078
C           -2.15951185981428        3.10114538416859        0.04624188414545
N           -3.02090235887752        4.20143818876369       -0.13869512171173
C           -4.32358721988242        4.00957611811458       -0.60919213943305
C           -4.79963923027661        2.76019779295083       -0.98824633751809
C           -6.09608296612100        2.60281160318910       -1.45457546248384
C           -6.93648995660498        3.69305108589337       -1.55852335768230
C           -6.46642628985822        4.95308275749571       -1.21723991556111
C           -5.17268429567779        5.11450527267880       -0.75614082598096
O           -4.76876291139488        6.39830622476093       -0.47289978154612
C           -3.48092710352959        6.57130479952611       -0.02149403039364
C           -3.08978271326694        7.86548218856794        0.26842594976050
C           -1.81794372301594        8.11900708508406        0.76148080059068
C           -0.95133635946330        7.06672417508179        0.97845026250333
C           -1.33857864531697        5.76739909024885        0.68690706592347
C           -2.59703822453644        5.49934794624559        0.16192034382842
C           -0.97969311275763        2.99696954803655       -0.68805453180266
C           -0.14858936990283        1.91092162626243       -0.51130017061548
N            1.69432415832690       -0.07673647578370        0.37818386765025
C            4.45023456754409        0.30192071341315       -0.02663156895576
C            5.79917893794499        0.44495093305117       -0.26878573907009
H            9.90645610829357        0.52779271765535       -5.07160740971125
H            7.49744331766227        0.04992857879591       -4.73759552517919
H            6.63530862871774       -0.41989158227916       -2.49734581415719
H           11.43517836728692        0.47438396069897       -3.11211673499727
H           12.31262178982547       -0.16979971444528        1.31553926557479
H           11.62069692467222       -0.62101363008281        3.66091976620212
H            9.21538559613906       -0.93245991083374        4.17072659327794
H            7.55524423770065       -0.83560973490462        2.38115240191637
H            6.86022913390885       -2.60636571485167        0.74800787308850
H            4.43754269415913       -2.85233831226643        1.19360312938355
H           -1.31351240643780       -3.32783849910460        2.44111641298609
H           -3.61679837687742       -4.18652895260561        2.15873504683472
H           -3.50366943368330       -5.50596307298606       -0.02284389313923
H           -3.99575561002259       -7.85703509987262       -0.47934869115475
H           -6.33727008404836       -8.60069241505730       -0.80593232004897
H           -8.16800351930493       -6.92227724737549       -0.69852606110861
H           -9.73799404970573       -2.66653476506703       -0.16308792741887
H           -9.43189939538089       -0.25551353040449        0.36027033444563
H           -7.16184939568745        0.59147601075508        0.87610987342093
H           -5.24194266741732       -0.92821269562825        0.82282865455972
H           -4.04718724375235       -1.83231410910635       -1.38115619880436
H           -1.76123110008777       -0.97272696069540       -1.09526780241345
H           -1.90594423921948        0.26387632102274        1.87038546179806
H           -3.38298690177918        2.20382882587899        1.55815316463339
H           -4.14836319343465        1.90333436562608       -0.92556411796651
H           -6.44036831638444        1.61926725263150       -1.73488662780293
H           -7.94811808792609        3.57629574458037       -1.91382972579605
H           -7.08889896350318        5.82954792601045       -1.30701635725894
H           -3.79950934894180        8.66161683203318        0.10666954971540
H           -1.52131020198197        9.13224979468188        0.98208031019079
H            0.03420488542089        7.24450683731920        1.38065991825394
H           -0.65712001907257        4.95361513236398        0.87801147341979
H           -0.72605546226700        3.76762394009338       -1.40052469089121
H            0.76136536122461        1.81811503805020       -1.08376931135068
H            3.76635657008048        1.11111952141105       -0.22997462371369
H            6.18685126599300        1.36920446513139       -0.67113758848000
