  102
       -170.16523100
 C         10.3087668481       -2.8707451179       -2.8449515574
 C          8.9473507504       -3.0397593236       -2.6790980634
 C          8.2490205254       -2.2624066667       -1.7698264970
 C          8.9048131217       -1.3060532088       -1.0015626222
 C         10.2826777991       -1.1246805747       -1.1966080058
 C         10.9740159693       -1.9047391333       -2.1056729058
 O         10.9993578429       -0.1721380035       -0.5196481585
 C         10.3233344723        0.6098392655        0.3806207772
 C         11.0568181153        1.5634992413        1.0626360101
 C         10.4431544597        2.3727064651        2.0065648933
 C          9.0970231138        2.2107860028        2.2733886210
 C          8.3561043852        1.2587363064        1.5927282620
 C          8.9498192176        0.4563283019        0.6239564756
 N          8.2348937165       -0.5078842992       -0.0792303470
 C          6.8435790333       -0.6625550311        0.1255466254
 C          6.3435285517       -1.8400634194        0.6820323118
 C          4.9899331081       -1.9981949874        0.8647942962
 C          4.0977004991       -0.9791265733        0.4978949553
 C          2.6868813048       -1.1503861296        0.6654813539
 N          2.2116211366       -2.3310635806        1.2019411025
 N          0.9680921533       -2.5487568512        1.2114715161
 C          0.0499648326       -1.7092093064        0.8137719726
 C         -1.3216961872       -2.1267754593        0.6504854852
 C         -1.9041672004       -3.0484630932        1.5277727516
 C         -3.2358821979       -3.3827942045        1.4133877970
 C         -4.0154027070       -2.8186677048        0.4046437146
 N         -5.3956956059       -3.1019423845        0.3125372995
 C         -5.8475357868       -4.3913296962        0.0415750674
 C         -4.9768281841       -5.4581459191       -0.1506032878
 C         -5.4613426364       -6.7293012694       -0.4139132594
 C         -6.8211824740       -6.9556579094       -0.5000973448
 C         -7.7025396774       -5.8966708033       -0.3425385074
 C         -7.2251609810       -4.6252715268       -0.0821266371
 O         -8.1533243112       -3.6208964589        0.0270306854
 C         -7.6911662598       -2.3549236840        0.2803546253
 C         -8.6356660058       -1.3503584801        0.3887889179
 C         -8.2452012525       -0.0514789967        0.6776658793
 C         -6.9077087100        0.2300422107        0.8765903843
 C         -5.9561788545       -0.7706364250        0.7626171245
 C         -6.3264384993       -2.0721695160        0.4401624568
 C         -3.4266105629       -1.9537274807       -0.5160584368
 C         -2.1009556214       -1.6097784689       -0.3955818016
 C          0.5355028779       -0.3550096924        0.4650711349
 C         -0.3557665339        0.7629303988        0.3152407277
 C         -1.5625616476        0.8337880705        1.0336636004
 C         -2.4379695514        1.8725972390        0.8298082280
 C         -2.1471271014        2.8694340456       -0.1013705374
 N         -3.0931807182        3.8859783525       -0.3584781737
 C         -4.3463031509        3.5564308505       -0.8708657850
 C         -4.6845834088        2.2558202073       -1.2301859211
 C         -5.9432670395        1.9623204753       -1.7294445869
 C         -6.8838395172        2.9615174876       -1.8855623113
 C         -6.5523082693        4.2693200276       -1.5653175266
 C         -5.2953730587        4.5697350035       -1.0727151599
 O         -5.0266238445        5.8887816223       -0.8115355112
 C         -3.7820713606        6.1984363791       -0.3244948575
 C         -3.5221850163        7.5314872005       -0.0646357692
 C         -2.2983742396        7.9151163474        0.4628730145
 C         -1.3471957540        6.9546506256        0.7464298451
 C         -1.6001165648        5.6177951747        0.4848780077
 C         -2.8088670753        5.2192917886       -0.0751856344
 C         -0.9265080398        2.8416780768       -0.7770484715
 C         -0.0399279559        1.8120174928       -0.5618594590
 N          1.8338503425       -0.2000906371        0.3416348617
 C          4.6122821248        0.2075746174       -0.0487603714
 C          5.9651063974        0.3608226473       -0.2341152606
 H         10.8553623486       -3.4765059771       -3.5500801532
 H          8.4151146890       -3.7776054230       -3.2593267474
 H          7.1844722886       -2.3924006802       -1.6573203686
 H         12.0324448461       -1.7359019128       -2.2229736291
 H         12.1083606128        1.6534352876        0.8422376541
 H         11.0214263537        3.1159671676        2.5319805113
 H          8.6115646383        2.8233113350        3.0173357974
 H          7.3091785620        1.1297074328        1.8168141768
 H          7.0313511754       -2.6225156922        0.9680107841
 H          4.5896126553       -2.9028293821        1.2944765896
 H         -1.3003562092       -3.4702337667        2.3165251247
 H         -3.6893278791       -4.0657869508        2.1165621962
 H         -3.9130142561       -5.2896371957       -0.1021474520
 H         -4.7634561744       -7.5402486005       -0.5540091028
 H         -7.2019308674       -7.9445610057       -0.6996959010
 H         -8.7685600794       -6.0352106785       -0.4247437202
 H         -9.6731832990       -1.6081399109        0.2485620985
 H         -8.9867002422        0.7273796091        0.7560936630
 H         -6.5934523280        1.2333201302        1.1186049707
 H         -4.9161617554       -0.5401342667        0.9285505551
 H         -4.0237750215       -1.5525223418       -1.3218962663
 H         -1.6500885018       -0.9536076865       -1.1239798415
 H         -1.7883193583        0.0847263155        1.7764396686
 H         -3.3616724471        1.9247727078        1.3877410339
 H         -3.9559809338        1.4686611416       -1.1207576053
 H         -6.1840565165        0.9436100131       -1.9905793861
 H         -7.8675982717        2.7341175158       -2.2638846893
 H         -7.2554356005        5.0761453071       -1.6961114750
 H         -4.2944623707        8.2535161419       -0.2765986564
 H         -2.1023744346        8.9571886968        0.6591215039
 H         -0.3988539931        7.2368981782        1.1768159304
 H         -0.8571807537        4.8742785505        0.7254091110
 H         -0.6936693181        3.6235121416       -1.4851943154
 H          0.8974907384        1.7768892933       -1.0951657976
 H          3.9236580365        0.9900385134       -0.3267514068
 H          6.3611104553        1.2687760102       -0.6655370776
