61
 energy: -96.959934237116 gnorm: 0.000034611052 xtb: 6.7.1 (edcfbbe)
C           -6.32133349866633        0.14810456807695        1.23710348568104
C           -5.33430578187147       -0.03564657293609        0.06995780305333
C           -6.09790244232632       -0.33864688796646       -1.23220132308510
C           -4.42596118143869       -1.20721770327416        0.38974227682373
C           -4.97984002954751       -2.46418985957090        0.59430914751488
C           -4.20772968854265       -3.56237824040423        0.92278210236590
C           -2.84184219755080       -3.40713359268366        1.07549595014850
C           -2.26574470373772       -2.17012190121476        0.87881225611831
C           -3.04086699830373       -1.06583494171315        0.51330477609968
N           -2.42891792824782        0.16476222045207        0.30496209135843
C           -1.02589778846852        0.26572816438480        0.45092762884044
C           -0.49263196773382        0.87965827072960        1.56379619843749
C            0.88734184046237        0.97759989518730        1.73230492711614
C            1.74641357043859        0.46010072879021        0.78402661591605
C            1.22962679233145       -0.16130958209684       -0.37132265718660
C            2.09681805625945       -0.68290865297665       -1.35334060069955
C            1.58312474869151       -1.27444078484135       -2.48833445290248
C            0.20141569763099       -1.35499908989316       -2.67871873377086
C           -0.66142874192324       -0.86232244740422       -1.73431159208885
C           -0.17253764416361       -0.26206470383413       -0.55603489442270
C            3.55749251065571       -0.60359576532317       -1.17353377882869
O            4.34657731491765       -1.05559813936219       -1.97529304427295
N            3.99598952668568        0.01866952500457       -0.01204534163384
C            5.41582077551960        0.10706908690325        0.17606909384685
C            6.01106229069244       -0.57575896563828        1.22444736626392
C            7.37936216351777       -0.48381684680227        1.40573885085661
C            8.14665116857722        0.27698854650405        0.54021566870614
C            7.54505931687632        0.95256357570158       -0.50780184450760
C            6.17618428597870        0.87429754411595       -0.69151346043363
C            3.20040341625158        0.56901898305158        0.98528482231910
O            3.69558609848590        1.10979953712373        1.95099123480690
C           -3.16137019910718        1.30333900543557       -0.00873260772316
C           -2.49594673399040        2.50641089871981       -0.25985600885534
C           -3.19602185665615        3.65357710924029       -0.56809238440905
C           -4.57663737599005        3.61814377633406       -0.64272893020246
C           -5.23416069487578        2.42173202593453       -0.42734784551675
C           -4.55416359277089        1.25140161012656       -0.11696234839342
H           -6.91683282725553       -0.74804194619766        1.38710420286538
H           -6.99671014096461        0.97754216071868        1.04699689564427
H           -5.77430174876427        0.35417805476965        2.15524040516625
H           -6.67432530770496       -1.25483792455292       -1.13998279251377
H           -6.78137630922426        0.46889189192586       -1.47869961430643
H           -5.39578114489703       -0.45624712261776       -2.05572984517497
H           -6.04692528597815       -2.59496027558706        0.49811472298204
H           -4.67065706605564       -4.52591923174757        1.07027619928104
H           -2.22170957505269       -4.24618278858268        1.35271578851093
H           -1.20147675455210       -2.05605637559596        1.01627605209498
H           -1.15846771048667        1.28330455967331        2.31207174943482
H            1.30482643998478        1.44915569894316        2.60894557692898
H            2.26972964490601       -1.66729908818681       -3.22301454973305
H           -0.18440586422043       -1.81046366334208       -3.57797076599633
H           -1.72868171120449       -0.92794593492375       -1.88395899581543
H            5.40465617478391       -1.16710039130454        1.89357722488158
H            7.84644979750829       -1.01129928106472        2.22389225908334
H            9.21500915493035        0.34354347405337        0.68271703842234
H            8.14163292353516        1.54641204816369       -1.18397778716886
H            5.69809453225785        1.39847549580991       -1.50501244662383
H           -1.41805142558361        2.54035176864723       -0.21887403869057
H           -2.65979308744239        4.57204176700614       -0.75335359356551
H           -5.13686121925497        4.50993952055109       -0.87793344344913
H           -6.31045366530624        2.40403380918827       -0.50663578738311
