  90
  -145.106921140000       0.337023752905553      !
 N        -10.9350042234       -1.9379066447       -0.4854298078
 C         -9.9360590855       -1.3860455181       -0.3476320495
 C         -8.7226141916       -0.7066164386       -0.1773025261
 N         -7.5738464681       -1.3345855853       -0.3396677578
 C         -6.4418148993       -0.7247089029       -0.1825182937
 C         -6.4450396301        0.7288418304        0.1927000625
 N         -7.5800811031        1.3339143241        0.3465241157
 C         -8.7258923809        0.7011342237        0.1809479392
 C         -9.9429626171        1.3752063738        0.3462694695
 N        -10.9468504846        1.9195105813        0.4782352337
 C         -5.0916901726        1.1442045998        0.2948448816
 C         -4.4555715907        2.3450004537        0.5953999363
 C         -3.0703878368        2.3806692543        0.5223217848
 C         -2.2809065055        1.2774126827        0.1943524315
 C         -0.8565138471        1.4896773070       -0.0740109289
 C         -0.3120590761        1.0823812192       -1.2944317411
 C          1.0046753468        1.3315324685       -1.6067716037
 C          1.8401466712        1.9793083886       -0.6924833471
 N          3.1850435165        2.2087339491       -0.9832521919
 C          3.8372543030        3.3196693899       -0.4257313068
 C          3.2054842013        4.5617399647       -0.3795483606
 C          3.8520132794        5.6478187268        0.1780682078
 C          5.1321884102        5.5140627277        0.6913978509
 C          5.7652105524        4.2823235196        0.6430840339
 C          5.1263208810        3.1893568629        0.0906184261
 C          3.9172485965        1.3358946932       -1.7944427416
 C          3.6647573493       -0.0360399199       -1.7894123681
 C          4.4095461960       -0.8853916922       -2.5835198286
 C          5.4191164281       -0.3878637945       -3.3909317536
 C          5.6718890954        0.9745619735       -3.4046277729
 C          4.9288791131        1.8327955145       -2.6186277100
 C          1.2974923458        2.3943834366        0.5279579754
 C         -0.0295275121        2.1675054343        0.8205030256
 C         -2.8986478807        0.0095638225        0.0044552303
 C         -2.2757673410       -1.2555800972       -0.1869386674
 C         -0.8504817617       -1.4645830535        0.0774066509
 C         -0.0287686754       -2.1501195037       -0.8162539448
 C          1.2975376027       -2.3823578538       -0.5257236787
 C          1.8456722209       -1.9632829463        0.6910095621
 N          3.1892096505       -2.2036037401        0.9789918543
 C          3.9351227858       -1.3355106046        1.7819468847
 C          4.9502268974       -1.8398433447        2.5975266404
 C          5.7080972598       -0.9872757928        3.3752962238
 C          5.4663684220        0.3771469653        3.3629643797
 C          4.4530068164        0.8821135026        2.5650835080
 C          3.6940928446        0.0385639074        1.7780514265
 C          3.8237075284       -3.3286969318        0.4286416121
 C          3.1766601047       -4.5635033969        0.4052130604
 C          3.8042820497       -5.6645625258       -0.1443579061
 C          5.0806874465       -5.5527831429       -0.6721334525
 C          5.7285079427       -4.3280862126       -0.6471190138
 C          5.1083711877       -3.2201427211       -0.1029271079
 C          1.0167548906       -1.3040159791        1.6029304942
 C         -0.3000584354       -1.0514428800        1.2932608210
 C         -3.0611633834       -2.3623148666       -0.5137150864
 C         -4.4463858513       -2.3326690323       -0.5851060223
 C         -5.0869637223       -1.1344376445       -0.2840102866
 C         -4.2976295350        0.0065265821        0.0054154175
 H         -5.0209137446        3.2294467546        0.8429461389
 H         -2.5702836618        3.3260314249        0.6821470443
 H         -0.9473496039        0.5934537548       -2.0178879296
 H          1.3945658453        1.0401181214       -2.5705878218
 H          2.2113007494        4.6670416390       -0.7883825605
 H          3.3557068876        6.6062707245        0.2056430630
 H          5.6339113525        6.3651302486        1.1255587189
 H          6.7608348377        4.1688071419        1.0453651477
 H          5.6144125496        2.2260353625        0.0630109891
 H          2.8825600698       -0.4316709138       -1.1618340689
 H          4.2067068715       -1.9462135265       -2.5636141994
 H          6.0011940976       -1.0555962500       -4.0071922020
 H          6.4487559168        1.3741170003       -4.0392811632
 H          5.1214793809        2.8951831675       -2.6433465929
 H          1.9278230713        2.8918940872        1.2504736990
 H         -0.4268359773        2.4909266762        1.7713667881
 H         -0.4300510561       -2.4767905020       -1.7643068091
 H          1.9231883895       -2.8881567294       -1.2465123209
 H          5.1345739890       -2.9037216926        2.6213412018
 H          6.4880732582       -1.3928107238        4.0022406949
 H          6.0596077799        1.0405543937        3.9731998927
 H          4.2579427394        1.9444371716        2.5472824618
 H          2.9099654384        0.4407322838        1.1570527040
 H          2.1855802263       -4.6510510489        0.8255811370
 H          3.2965393642       -6.6173560504       -0.1535812052
 H          5.5680099491       -6.4155561705       -1.0995189761
 H          6.7209404583       -4.2319105536       -1.0614989585
 H          5.6077437049       -2.2623318864       -0.0936405746
 H          1.4110260355       -1.0082299557        2.5636302297
 H         -0.9312412928       -0.5566180496        2.0162548855
 H         -2.5572706335       -3.3055618487       -0.6739619295
 H         -5.0083978376       -3.2193759466       -0.8321096406
  90
  -145.106917270000       0.335646390723265      !
 N        -10.9463866326       -1.2516785370        1.4806024849
 C         -9.9417896340       -0.9022816097        1.0443985641
 C         -8.7227724123       -0.4707942644        0.5048716296
 N         -7.5793851226       -0.8424874319        1.0482408381
 C         -6.4424592063       -0.4588653972        0.5595493990
 C         -6.4342861164        0.4285588081       -0.6510431102
 N         -7.5641170738        0.7880533437       -1.1732297492
 C         -8.7148421999        0.3912506772       -0.6641694645
 C         -9.9261543091        0.7933737011       -1.2423302838
 N        -10.9242705040        1.1199961711       -1.7096640610
 C         -5.0782570480        0.6948798122       -0.9736725844
 C         -4.4335726870        1.4379115674       -1.9581552948
 C         -3.0495222307        1.5176865947       -1.9072923572
 C         -2.2681972248        0.8722185333       -0.9471659058
 C         -0.8457008913        1.2091030379       -0.8617809878
 C         -0.0166730523        1.1898464763       -1.9827490366
 C          1.3081342218        1.5558786304       -1.8923194025
 C          1.8477177432        1.9879169072       -0.6763946994
 N          3.1904153487        2.3569004416       -0.5923427536
 C          3.9306566915        2.1716490200        0.5788942722
 C          4.9488526401        3.0683140609        0.9093974814
 C          5.7008519795        2.8791476243        2.0517694727
 C          5.4505801830        1.8029850926        2.8880744595
 C          4.4341765735        0.9166802568        2.5717539423
 C          3.6806726666        1.0933690016        1.4282478267
 C          3.8294801169        2.8958352348       -1.7204037946
 C          5.1141823072        2.4784831324       -2.0665707555
 C          5.7359684958        3.0047465755       -3.1821990747
 C          5.0904565112        3.9481385090       -3.9654461623
 C          3.8149560433        4.3674142685       -3.6228305568
 C          3.1852159659        3.8490276639       -2.5079874023
 C          1.0113218567        2.0406114590        0.4420957632
 C         -0.3040661750        1.6471986314        0.3493771148
 C         -2.8939572407        0.0075415157       -0.0057393894
 C         -2.2793138183       -0.8535990401        0.9462623811
 C         -0.8548451778       -1.1868056023        0.8784787504
 C         -0.3027641002       -1.6275704392       -0.3270221962
 C          1.0135413942       -2.0200501560       -0.4078911906
 C          1.8405720729       -1.9627930821        0.7172166987
 N          3.1846613816       -2.3303000191        0.6446767202
 C          3.9333874671       -2.1459615861       -0.5211383226
 C          4.9571222229       -3.0399322805       -0.8420733444
 C          5.7174097471       -2.8508362635       -1.9789133675
 C          5.4695754049       -1.7779869440       -2.8201589834
 C          4.4470974730       -0.8950600556       -2.5141645808
 C          3.6858998759       -1.0710939942       -1.3756650974
 C          3.8122057957       -2.8761754041        1.7757515655
 C          5.0972759652       -2.4682896971        2.1322301093
 C          5.7097921284       -3.0054272659        3.2478225896
 C          5.0540480780       -3.9494062072        4.0218614017
 C          3.7771594912       -4.3572873813        3.6705986472
 C          3.1569993947       -3.8286793649        2.5551310340
 C          1.2906809767       -1.5280457251        1.9274728407
 C         -0.0355466380       -1.1636869697        2.0063143823
 C         -3.0730516859       -1.5045511039        1.8922343956
 C         -4.4586876762       -1.4382336729        1.9150766936
 C         -5.0907437093       -0.7032068781        0.9164135912
 C         -4.2928102562        0.0012256358       -0.0194476825
 H         -4.9922207719        1.9637759041       -2.7161269898
 H         -2.5437901134        2.1518917244       -2.6223520632
 H         -0.4109093465        0.8524108459       -2.9299730669
 H          1.9395564891        1.5031021310       -2.7671512577
 H          5.1400796630        3.9163205300        0.2685193934
 H          6.4829532393        3.5827335835        2.2950823818
 H          6.0393095908        1.6588689787        3.7808768451
 H          4.2320774464        0.0738328599        3.2164985241
 H          2.8935780183        0.3967802813        1.1886437303
 H          5.6115733364        1.7341082967       -1.4621977381
 H          6.7277760284        2.6692354254       -3.4458728437
 H          5.5789116460        4.3553354595       -4.8372589263
 H          3.3091548470        5.1078740989       -4.2241368391
 H          2.1944634882        4.1809468485       -2.2347113818
 H          1.3989064301        2.4098369617        1.3798352430
 H         -0.9406278936        1.7099947117        1.2193044845
 H         -0.9322841357       -1.6933226566       -1.2018579303
 H          1.4090100951       -2.3921344690       -1.3411844818
 H          5.1461859989       -3.8862588216       -0.1984136824
 H          6.5038614682       -3.5523181130       -2.2142147183
 H          6.0646111624       -1.6340711452       -3.7087970141
 H          4.2464939537       -0.0548928052       -3.1628328000
 H          2.8950740247       -0.3759711334       -1.1440309150
 H          5.6031405246       -1.7241608558        1.5345587227
 H          6.7026745348       -2.6785170723        3.5183896976
 H          5.5355352358       -4.3656228364        4.8933221327
 H          3.2632134873       -5.0979345674        4.2647141732
 H          2.1655901328       -4.1527271635        2.2746491098
 H          1.9149836820       -1.4726165931        2.8072780156
 H         -0.4380921768       -0.8245570681        2.9494481447
 H         -2.5756553996       -2.1340881294        2.6172252287
 H         -5.0272885264       -1.9698395317        2.6615655371
  90
  -145.106893560000       0.327329856371182      !
 N        -10.9418856469       -1.8805692389       -0.4897845211
 C         -9.9351015111       -1.3434627397       -0.3489741987
 C         -8.7184579366       -0.6660734187       -0.1934752232
 N         -7.5733671340       -1.2995621345       -0.3612622594
 C         -6.4377870500       -0.6937774592       -0.2139382322
 C         -6.4325776409        0.7613889877        0.1543634230
 N         -7.5640625697        1.3718961495        0.3138316127
 C         -8.7135349391        0.7427696804        0.1598014696
 C         -9.9262737084        1.4218357473        0.3366747323
 N        -10.9253475677        1.9725813140        0.4768740048
 C         -5.0769728234        1.1701262136        0.2519008864
 C         -4.4339820581        2.3686903105        0.5468331800
 C         -3.0485861238        2.3952425484        0.4765410901
 C         -2.2649021911        1.2849352998        0.1576569797
 C         -0.8377268431        1.4865964967       -0.1021413446
 C         -0.2825255950        1.0578006067       -1.3104286261
 C          1.0375634019        1.2996419026       -1.6147245764
 C          1.8638204408        1.9648617850       -0.7050165737
 N          3.2093530131        2.2015185728       -0.9891111081
 C          3.9613373805        1.3190773923       -1.7694647245
 C          3.7161201395       -0.0543448953       -1.7447825692
 C          4.4820228628       -0.9136462789       -2.5074286265
 C          5.5056726937       -0.4255957090       -3.3028766308
 C          5.7500866150        0.9379313429       -3.3377815496
 C          4.9860274536        1.8061459873       -2.5837260659
 C          3.8304660473        3.3474785923       -0.4672710758
 C          5.1140191302        3.2680079413        0.0721308167
 C          5.7198899945        4.3978427079        0.5867625574
 C          5.0588599454        5.6156848094        0.5743850739
 C          3.7831615233        5.6983265294        0.0396175866
 C          3.1697135653        4.5752424112       -0.4804685020
 C          1.3119235559        2.3980292338        0.5047944436
 C         -0.0172560085        2.1757826874        0.7900336044
 C         -2.8905043721        0.0202524133       -0.0279239412
 C         -2.2755289825       -1.2504043610       -0.2082146719
 C         -0.8538564616       -1.4672649898        0.0684891015
 C         -0.3104218613       -1.0452040361        1.2844733431
 C          1.0018660637       -1.3040437152        1.6076826842
 C          1.8324119776       -1.9800105734        0.7098395023
 N          3.1700382535       -2.2345188069        1.0140120554
 C          3.9206314690       -1.3646142901        1.8099027229
 C          3.6972035350        0.0124680715        1.7836757700
 C          4.4623807616        0.8581119912        2.5622483352
 C          5.4631452919        0.3523961085        3.3756266297
 C          5.6856037416       -1.0148581002        3.4120400654
 C          4.9223379333       -1.8693732607        2.6417209326
 C          3.7868409680       -3.3839139783        0.4946692628
 C          3.1125659654       -4.6043671493        0.4882329858
 C          3.7211509352       -5.7299133928       -0.0322714459
 C          5.0054444339       -5.6571423107       -0.5475733374
 C          5.6804201856       -4.4469491961       -0.5390270907
 C          5.0795800446       -3.3147117350       -0.0238080160
 C          1.2923698802       -2.4055200826       -0.5081144721
 C         -0.0296896468       -2.1666065886       -0.8121784161
 C         -3.0668958087       -2.3535439850       -0.5329003878
 C         -4.4515943388       -2.3150722455       -0.6094213757
 C         -5.0853268933       -1.1113459425       -0.3155934316
 C         -4.2894313902        0.0264220211       -0.0316984331
 H         -4.9943267917        3.2578773032        0.7887377641
 H         -2.5430827438        3.3384338963        0.6320582151
 H         -0.9119450102        0.5583002746       -2.0317384789
 H          1.4366366418        0.9910027749       -2.5694128107
 H          2.9229724825       -0.4440939274       -1.1272805486
 H          4.2834344036       -1.9749506593       -2.4730342976
 H          6.1038947464       -1.1011601233       -3.8946839396
 H          6.5367431628        1.3306555944       -3.9646238449
 H          5.1728543142        2.8690082115       -2.6260230400
 H          5.6241010898        2.3159466386        0.0906995181
 H          6.7118278383        4.3246819651        1.0070671527
 H          5.5353330468        6.4956972177        0.9782470122
 H          3.2651735548        6.6454309984        0.0195534142
 H          2.1795259121        4.6401657179       -0.9070322601
 H          1.9369437626        2.9080487891        1.2232633279
 H         -0.4226501607        2.5149840509        1.7319218005
 H         -0.9438792846       -0.5382677937        1.9970052894
 H          1.3907133737       -1.0014308995        2.5684807122
 H          2.9217945981        0.4158580862        1.1525193627
 H          4.2813376317        1.9225123696        2.5263424699
 H          6.0607342423        1.0172641085        3.9800703266
 H          6.4542303279       -1.4211030075        4.0524725932
 H          5.0917812029       -2.9351388793        2.6844457578
 H          2.1151773583       -4.6615664055        0.8988268917
 H          3.1920703984       -6.6710784851       -0.0287377102
 H          5.4775644464       -6.5387810108       -0.9530004726
 H          6.6794830388       -4.3815088056       -0.9433934234
 H          5.6008305915       -2.3685506950       -0.0258315435
 H          1.9212932990       -2.9217710162       -1.2186274599
 H         -0.4248201440       -2.4971125063       -1.7614755420
 H         -2.5687790535       -3.3011012633       -0.6856713971
 H         -5.0186149726       -3.1993888025       -0.8535554269
