87
 energy: -133.925111871904 gnorm: 0.000073917251 xtb: 6.7.1 (edcfbbe)
C           10.19928061793889       -1.28465252656865        0.74178493377524
C            9.27428848036305       -0.29076600518778        0.01458054916372
C           10.10916133649015        0.75371382377139       -0.74989548522477
C            8.42636617625679       -1.05085554766974       -0.98402847634123
C            9.04578070336800       -1.75830794526581       -2.00547210476003
C            8.32475529236744       -2.43475293767240       -2.97139203265017
C            6.94113312144545       -2.38834069583277       -2.94055922102229
C            6.29998184881266       -1.69521281600200       -1.93794212102908
C            7.02602437477011       -1.04254638799470       -0.93327457225673
N            6.35316876918886       -0.36833782120242        0.07168278899585
C            4.93683897629846       -0.39948236678425        0.09488767036752
C            4.19954713716906        0.75661744156034       -0.16748221333527
C            2.82674895864742        0.72334244563390       -0.15371793585895
C            2.12022578486771       -0.46350780929207        0.13035489664708
C            0.68204002555898       -0.49401657382408        0.13919721751297
C           -0.04307513326962       -1.69160527157545       -0.08793615936148
C           -1.40240171742522       -1.70899148365830       -0.11346363668985
C           -2.16817187590906       -0.52070197109425        0.07364705598212
C           -3.56610165433629       -0.63328952469185        0.00656147385434
N           -4.18544441640488       -1.82232081565305        0.11804840628545
C           -5.48593712223428       -1.57310368599383        0.16374420148960
C           -6.54203032034419       -2.50996670295985        0.36235046256166
C           -6.26470975577955       -3.86066646191786        0.58535627268028
C           -7.28729620406448       -4.74969624074982        0.82801148868796
C           -8.59697633687680       -4.28541890865200        0.85910937221503
C           -8.88096412047722       -2.95412821478523        0.63154676870527
C           -7.86900457443612       -2.02431622751199        0.36330482503883
C           -8.13629310915268       -0.62489833765527        0.06612829334995
C           -9.44077271612263       -0.14782580592792       -0.07090056478337
C           -9.71506108607991        1.16139242917251       -0.40862045278788
C           -8.67011464960663        2.04944513180235       -0.65253357389777
C           -7.37294107902843        1.62816396888089       -0.51926400382038
C           -7.06479795594498        0.30503067408848       -0.13515396859038
C           -5.75006498727665       -0.17977666506836        0.01238207832833
N           -4.51088829130384        0.40998961681965       -0.08397864709586
C           -4.20472295447461        1.75394936781619       -0.29415393108456
C           -3.40386613793806        2.12311263210089       -1.38329854997942
C           -3.08057825303320        3.44280156836007       -1.58762991677384
C           -3.54232962656987        4.42630923380742       -0.70130231447907
C           -3.20438941977315        5.77596408914687       -0.90409221380360
N           -2.92693327643868        6.87938343163743       -1.06885569878670
C           -4.33995662733266        4.05625295879895        0.39164895967706
C           -4.66912301529332        2.73673297253029        0.59015978388197
C           -1.44382227315125        0.66668334794869        0.37163877885192
C           -0.08142881344933        0.67085871154595        0.39511543323856
C            2.88648644337139       -1.61611363868012        0.39899556041603
C            4.25934313589166       -1.58682918858227        0.37824870477068
C            7.02826140685186        0.33961606323421        1.05158060354593
C            6.30794023124204        0.95254403517861        2.08494471984050
C            6.94986118964360        1.67805832469614        3.06387550334491
C            8.32929971053156        1.79744271725526        3.04137424153955
C            9.04729920743171        1.16046395379006        2.04677935732531
C            8.42709494834954        0.42138076925004        1.04848604716431
H           10.83227344653148       -1.81314446249134        0.03471462305147
H           10.83958409944013       -0.77010986449397        1.45248186668136
H            9.60341476588366       -2.01663452901056        1.28376510045379
H           10.73990152376451        1.31857070377879       -0.06940479703421
H           10.74721982567170        0.27586797252264       -1.48776060213503
H            9.44986246882522        1.44963550952581       -1.26524947724100
H           10.12358418785512       -1.78255747158100       -2.05592801890661
H            8.83829781395561       -2.97883749477167       -3.74896143571419
H            6.35962161164154       -2.88682396214839       -3.70112059602716
H            5.22275165723818       -1.64670891435433       -1.93312211805775
H            4.72291259607389        1.67284207025294       -0.40046031945355
H            2.28184596560808        1.61948374788223       -0.40586012905427
H            0.49610566658024       -2.60513899541761       -0.28750327717716
H           -1.94521226169862       -2.62030629036264       -0.30672066538197
H           -5.23226947632497       -4.17297631370202        0.56901785169830
H           -7.07712332238712       -5.79446538944221        1.00090618027481
H           -9.40539171917713       -4.97268162675297        1.06289078103968
H           -9.91260259468106       -2.64273617119506        0.67135659448049
H          -10.27404992453316       -0.81623736982894        0.07477599258925
H          -10.73884681933321        1.49069341241387       -0.50274926255703
H           -8.88010590247996        3.06545681024390       -0.95188642172977
H           -6.57196055274003        2.31439912276542       -0.73850956221119
H           -3.04990276309575        1.35936862212019       -2.05944034853020
H           -2.47383706609791        3.73278943416397       -2.43249031285598
H           -4.68457259289764        4.81507546298298        1.07842042052201
H           -5.27539484559717        2.44319203509183        1.43476403111243
H           -1.97374077464009        1.56537713986662        0.64323470939312
H            0.42783994398531        1.58354217522041        0.66678776762083
H            2.38977636906715       -2.53570969974492        0.66522213024231
H            4.82961438971146       -2.47802315373480        0.59806365947024
H            5.23527999895110        0.84761895616562        2.12078765010212
H            6.37271418462074        2.14518971334606        3.84728480670694
H            8.84297800299663        2.36808888320438        3.79955573489746
H           10.12340623996156        1.24248282019604        2.05513160296483
