  87
       -134.00340221
 C         10.2046355651       -1.1633368211        0.6238843632
 C          9.2303513615       -0.1960466932       -0.0727283109
 C         10.0108897819        0.8702917441       -0.8629357448
 C          8.3710526980       -0.9817053789       -1.0446868892
 C          8.9782831507       -1.6835653409       -2.0770101251
 C          8.2485983406       -2.3931511101       -3.0123923709
 C          6.8679662928       -2.3922649090       -2.9326172740
 C          6.2389056962       -1.7039600140       -1.9169854659
 C          6.9753994749       -1.0089889452       -0.9527560609
 N          6.3158480761       -0.3387812576        0.0666114841
 C          4.8985857881       -0.3905472611        0.1215212102
 C          4.1442291068        0.7183248811       -0.2449487507
 C          2.7654251768        0.6656905988       -0.1939148285
 C          2.1112954593       -0.4978594337        0.2063925088
 C          0.6440186156       -0.5584657166        0.2330272387
 C         -0.0302632561       -1.6839673824       -0.2393697195
 C         -1.4073616673       -1.7301200443       -0.2415809364
 C         -2.1558507922       -0.6515236666        0.2328258945
 C         -3.6040333784       -0.7628673001        0.1979065022
 N         -4.2377288167       -1.8900676787        0.3890374196
 C         -5.5621648377       -1.6024416137        0.2950913321
 C         -6.6606373414       -2.4901898666        0.4660254578
 C         -6.4600324410       -3.8387485038        0.7781156349
 C         -7.5336795368       -4.6708472390        0.9737031705
 C         -8.8251085990       -4.1588635982        0.8637373634
 C         -9.0334092424       -2.8359419152        0.5509972708
 C         -7.9622637837       -1.9558784290        0.3323635991
 C         -8.1473380049       -0.5640920756       -0.0403553040
 C         -9.4232533800       -0.0283740906       -0.2662634766
 C         -9.6083771987        1.2726206831       -0.6697643055
 C         -8.5103907892        2.0985247148       -0.8874861117
 C         -7.2438955000        1.6157919560       -0.6686212142
 C         -7.0341702652        0.3025009670       -0.2237188461
 C         -5.7449458023       -0.2486144451        0.0220915489
 N         -4.4747597402        0.2867719483       -0.0297245009
 C         -4.0895578222        1.6189913522       -0.2395801303
 C         -3.2732376492        1.9380418306       -1.3225949012
 C         -2.8544224115        3.2389526403       -1.5097622995
 C         -3.2512835904        4.2323975230       -0.6132588034
 C         -2.8196938211        5.5658061848       -0.8005215829
 N         -2.4693907567        6.6468314205       -0.9496000942
 C         -4.0716517910        3.9130880792        0.4711044175
 C         -4.4857641114        2.6112516621        0.6574255788
 C         -1.4844825670        0.4580855397        0.7442623847
 C         -0.1051489375        0.5042904867        0.7332083028
 C          2.8758947014       -1.6044992853        0.5705631170
 C          4.2552032488       -1.5507452693        0.5376187623
 C          7.0017950393        0.3894574258        1.0267815735
 C          6.2954954254        1.0069765272        2.0634939657
 C          6.9483066128        1.7497653354        3.0242687768
 C          8.3237758535        1.8847985352        2.9740130561
 C          9.0272071372        1.2524372214        1.9659239618
 C          8.3959516577        0.4963612701        0.9877482571
 H         10.8353478136       -1.6693168330       -0.1016554178
 H         10.8473324868       -0.6328157528        1.3208575148
 H          9.6458720148       -1.9157122660        1.1774041778
 H         10.6542467500        1.4478136982       -0.2047931595
 H         10.6306295842        0.4106564096       -1.6279555001
 H          9.3156642483        1.5524756398       -1.3489972357
 H         10.0546224426       -1.6780370348       -2.1605662241
 H          8.7535258869       -2.9317298695       -3.7997428627
 H          6.2762014022       -2.9249921908       -3.6622285173
 H          5.1608169769       -1.6986802773       -1.8712262583
 H          4.6479039309        1.6173499641       -0.5676079374
 H          2.1860654257        1.5260875033       -0.4942998299
 H          0.5344288538       -2.5171861562       -0.6309098929
 H         -1.9318944836       -2.5962825677       -0.6136420848
 H         -5.4439525717       -4.1909380309        0.8648293332
 H         -7.3845880342       -5.7124839214        1.2161734323
 H         -9.6734164440       -4.8081449878        1.0253741331
 H        -10.0506185834       -2.4850081408        0.4799308997
 H        -10.2951753495       -0.6480325555       -0.1337896113
 H        -10.6070385000        1.6493881233       -0.8337136604
 H         -8.6514739481        3.1121727820       -1.2321340543
 H         -6.3963625428        2.2540156538       -0.8629991671
 H         -2.9706958134        1.1600376310       -2.0072557089
 H         -2.2224288143        3.4950206354       -2.3469269306
 H         -4.3729241120        4.6871108004        1.1609653620
 H         -5.1176483416        2.3497674058        1.4931997241
 H         -2.0350187868        1.2793425352        1.1784828646
 H          0.4008947389        1.3660606182        1.1434244986
 H          2.3833151462       -2.5053401378        0.9052627618
 H          4.8452314463       -2.4076949371        0.8275833459
 H          5.2232186381        0.8971826905        2.1174621662
 H          6.3796788303        2.2201682433        3.8126963485
 H          8.8463355760        2.4682871831        3.7165962803
 H         10.1018626527        1.3537605669        1.9465135443
