  87
       -133.92311553
 C         10.2397284211       -1.0557564921        0.8147723718
 C          9.2783085012       -0.1477261494        0.0252850569
 C         10.0743108448        0.8783890606       -0.8034077977
 C          8.4636638780       -1.0000342704       -0.9253089553
 C          9.1145614437       -1.7504958920       -1.8952338050
 C          8.4242550385       -2.5059666650       -2.8241860452
 C          7.0395642394       -2.4956610144       -2.8111997637
 C          6.3675886279       -1.7621743535       -1.8588128309
 C          7.0630369514       -1.0314976023       -0.8865055047
 N          6.3606336177       -0.3215520378        0.0728070949
 C          4.9458788544       -0.3794827711        0.0809927077
 C          4.1926529119        0.7575495954       -0.2208651077
 C          2.8210965621        0.7054303937       -0.2111960974
 C          2.1304235027       -0.4831677989        0.1048209764
 C          0.6934293719       -0.5290306739        0.1181340123
 C         -0.0209972633       -1.7342541341       -0.0973867343
 C         -1.3809017298       -1.7628233547       -0.1182133151
 C         -2.1549117176       -0.5808492558        0.0681794892
 C         -3.5537834311       -0.7041985218        0.0121303724
 N         -4.1638811176       -1.8953609975        0.1318672766
 C         -5.4666300368       -1.6537039230        0.1882259546
 C         -6.5156308123       -2.5953013836        0.3984910949
 C         -6.2297985627       -3.9450816420        0.6173296486
 C         -7.2454210786       -4.8388825332        0.8715958345
 C         -8.5567350128       -4.3804509114        0.9185561002
 C         -8.8494360994       -3.0502903737        0.6950582735
 C         -7.8450040076       -2.1155169718        0.4154412833
 C         -8.1222468747       -0.7175927544        0.1227231028
 C         -9.4304816286       -0.2445842641        0.0063314806
 C         -9.7142036579        1.0632594869       -0.3282135573
 C         -8.6760979984        1.9546028200       -0.5901622728
 C         -7.3757480626        1.5380961915       -0.4759374265
 C         -7.0573655045        0.2164988352       -0.0944734966
 C         -5.7389573016       -0.2626341446        0.0367809565
 N         -4.5047268223        0.3331342015       -0.0729769050
 C         -4.2085899505        1.6797263776       -0.2831946886
 C         -3.4230264637        2.0567226785       -1.3809993151
 C         -3.1065830709        3.3782377442       -1.5828569245
 C         -3.5596139539        4.3562918974       -0.6853728322
 C         -3.2253272947        5.7069136072       -0.8845421599
 N         -2.9479816975        6.8107465843       -1.0479914547
 C         -4.3437432221        3.9782556803        0.4149748614
 C         -4.6664566569        2.6569440108        0.6108577396
 C         -1.4404656261        0.6136167467        0.3569392131
 C         -0.0776933566        0.6306074487        0.3706167354
 C          2.9114023315       -1.6182221559        0.4052592167
 C          4.2836266928       -1.5690436338        0.3928888414
 C          7.0060108785        0.4608137364        1.0159394120
 C          6.2602168244        1.1000701855        2.0150966840
 C          6.8704227230        1.9059641451        2.9502964194
 C          8.2437592534        2.0814448961        2.9189258680
 C          8.9889512967        1.4151872576        1.9643910619
 C          8.4009345389        0.5942278920        1.0115300283
 H         10.8976565040       -1.6003665867        0.1436189503
 H         10.8549082137       -0.4724707453        1.4940786481
 H          9.6711051016       -1.7766726236        1.3994745172
 H         10.6839436681        1.5065535199       -0.1601439091
 H         10.7288714672        0.3802123141       -1.5128834912
 H          9.3892048944        1.5166237704       -1.3581987928
 H         10.1931318427       -1.7455740803       -1.9343174058
 H          8.9618956614       -3.0819997198       -3.5613819534
 H          6.4812953907       -3.0542325841       -3.5468474998
 H          5.2896432238       -1.7426953309       -1.8694025495
 H          4.7042915735        1.6735987270       -0.4792714813
 H          2.2634705285        1.5852035582       -0.4917477226
 H          0.5264754760       -2.6437411878       -0.2936066452
 H         -1.9168845733       -2.6794905490       -0.3052528975
 H         -5.1962221714       -4.2527481872        0.5884368460
 H         -7.0285781327       -5.8828375987        1.0411231287
 H         -9.3596247474       -5.0714550130        1.1313982805
 H         -9.8820139609       -2.7436742890        0.7466770932
 H        -10.2592253469       -0.9155015657        0.1659433377
 H        -10.7404286716        1.3894401506       -0.4060574178
 H         -8.8944040535        2.9694328656       -0.8874639239
 H         -6.5803008900        2.2263454785       -0.7087392865
 H         -3.0750937173        1.2971703229       -2.0649496722
 H         -2.5111762855        3.6744496708       -2.4335818141
 H         -4.6828710778        4.7326343292        1.1094238060
 H         -5.2619174424        2.3572866444        1.4609755142
 H         -1.9762629883        1.5085499637        0.6288494660
 H          0.4258667427        1.5490521776        0.6335488499
 H          2.4250038482       -2.5370190996        0.6928936160
 H          4.8652512320       -2.4447243138        0.6434352506
 H          5.1928276159        0.9529571704        2.0590026404
 H          6.2734342312        2.3928610443        3.7063081180
 H          8.7321392060        2.7174634740        3.6409002367
 H         10.0608855542        1.5403452119        1.9678600351
