  99
       -164.67609299
 C          6.4467334686        1.1338870748        1.9973242480
 C          5.0766192105        1.1393605490        2.1564411363
 C          4.3201748112        0.0463296718        1.7611453806
 C          4.9176742258       -1.0732394162        1.1982416940
 C          6.3061619479       -1.0555587365        1.0146641941
 C          7.0577777545        0.0322741624        1.4189309887
 O          6.9861093202       -2.0876178110        0.4207543453
 C          6.2481704858       -3.1522890004       -0.0288063130
 C          6.9365748390       -4.1718197994       -0.6596007876
 C          6.2653193638       -5.3023878331       -1.1019852170
 C          4.9061065002       -5.4127517477       -0.8896568866
 C          4.2100563561       -4.3901925062       -0.2629834329
 C          4.8615238926       -3.2353646124        0.1517170707
 N          4.1830637786       -2.1942032718        0.7893320629
 C          2.7739887138       -2.1340891786        0.7550219728
 C          2.0421324941       -2.0042506662        1.9315000609
 C          0.6751196702       -1.7997109136        1.8852126912
 C          0.0217980806       -1.7129703694        0.6626825726
 C         -1.3715466126       -1.2438678519        0.5540008169
 N         -2.3770161544       -1.9828037861        0.9335259703
 C         -3.6220429947       -1.5043555242        0.7260154405
 C         -4.7410564351       -2.2571464782        1.1319690990
 C         -6.0005891123       -1.7953700089        0.8797222169
 C         -6.2032410104       -0.5652925136        0.2138645611
 N         -7.5203057785       -0.1370829739       -0.0340287784
 C         -8.3991250979        0.0703122567        1.0331235487
 C         -7.9827234933        0.0051912409        2.3571899075
 C         -8.8787451063        0.2130676584        3.3946448876
 C        -10.2007687490        0.5051811329        3.1267704348
 C        -10.6235177746        0.6133699280        1.8103108505
 C         -9.7337081237        0.4070141876        0.7723047092
 O        -10.2161643006        0.5628576795       -0.5021209381
 C         -9.3284690067        0.4121987075       -1.5379925331
 C         -9.8238868251        0.6067922253       -2.8142293701
 C         -9.0028973583        0.4358568375       -3.9184401548
 C         -7.6896619748        0.0538017206       -3.7344113664
 C         -7.1866516838       -0.1377509052       -2.4565776707
 C         -7.9872077912        0.0575929983       -1.3383169451
 C         -5.1264785543        0.1933930196       -0.1841522699
 C         -3.8222058447       -0.2594027681        0.0688417261
 N         -2.7669419787        0.5166663846       -0.2716328040
 C         -1.5731264914        0.0620609708       -0.0141050433
 C         -0.3631321346        0.8693476661       -0.2564862582
 C          0.1269326661        1.0998596346       -1.5352650354
 C          1.3869469252        1.6427451673       -1.7111139902
 C          2.1712348175        1.9712644063       -0.6096102945
 N          3.5092134233        2.3864927984       -0.7772615982
 C          4.4646277786        1.4822770992       -1.2597607947
 C          4.1223830716        0.2426425109       -1.7825815324
 C          5.0930346510       -0.6293413275       -2.2523798696
 C          6.4260995202       -0.2778692845       -2.2097583072
 C          6.7871484559        0.9486061268       -1.6741217734
 C          5.8232794320        1.8169861112       -1.1961303346
 O          6.2700060930        2.9941575525       -0.6529295528
 C          5.3281900952        3.8490506912       -0.1406494281
 C          5.7878969895        5.0225222261        0.4274865488
 C          4.8930298191        5.9569842112        0.9279505446
 C          3.5370188521        5.7165815461        0.8374224500
 C          3.0710866941        4.5384556346        0.2739586763
 C          3.9554081400        3.5768871409       -0.1986810056
 C          1.6327115585        1.8460905521        0.6689092747
 C          0.3853221808        1.2874184911        0.8415203968
 C          0.7419828784       -1.9384384979       -0.5080925992
 C          2.1008394412       -2.1612707499       -0.4641063935
 H          7.0398015638        1.9807548784        2.3036501404
 H          4.5843866623        1.9981483500        2.5891567947
 H          3.2492793301        0.0689667349        1.8801517898
 H          8.1235768806        0.0008433139        1.2604050133
 H          8.0015894748       -4.0647576227       -0.7892956309
 H          6.8106998631       -6.0913254333       -1.5952501870
 H          4.3736957046       -6.2965164985       -1.2061242996
 H          3.1505770434       -4.4934442763       -0.0873446524
 H          2.5539359309       -2.0426266316        2.8815718117
 H          0.1144818771       -1.6741542893        2.7994059300
 H         -4.5708558411       -3.2006812571        1.6261132329
 H         -6.8658247886       -2.3718548093        1.1722336725
 H         -6.9481927013       -0.2028423206        2.5808988119
 H         -8.5287487875        0.1489729650        4.4133499029
 H        -10.9027889775        0.6629377297        3.9299718328
 H        -11.6438320942        0.8617515621        1.5659310067
 H        -10.8602350761        0.8843916927       -2.9212306058
 H         -9.3975126719        0.5914693843       -4.9098724516
 H         -7.0420050577       -0.1021631272       -4.5832996524
 H         -6.1630119390       -0.4524236973       -2.3316713444
 H         -5.2586764921        1.1441867883       -0.6764167625
 H         -0.4680218537        0.8227661461       -2.3926618106
 H          1.7786315354        1.7951155036       -2.7058181751
 H          3.0855882769       -0.0495787199       -1.8105280034
 H          4.7978495272       -1.5891122604       -2.6508703847
 H          7.1848645692       -0.9520078844       -2.5736300617
 H          7.8201408803        1.2491108075       -1.6067295064
 H          6.8525225184        5.1898048477        0.4627356464
 H          5.2614222870        6.8687223730        1.3709006580
 H          2.8277029319        6.4443112227        1.2006319389
 H          2.0090402057        4.3670608781        0.1932346697
 H          2.2113204847        2.1609511765        1.5235328765
 H         -0.0096208178        1.1527683695        1.8379581838
 H          0.2315604482       -1.9178415268       -1.4599406147
 H          2.6550848026       -2.3273967908       -1.3748360699
