92
 energy: -138.207134850126 gnorm: 0.000112400740 xtb: 6.7.1 (edcfbbe)
C           -8.76853447785605       -2.09159633464994        0.00983025233044
C           -7.87210133812751       -0.83958448104326        0.00247493091261
C           -8.73662777188743        0.43461196056193       -0.00897342238202
C           -7.02080458193332       -0.85918881516111       -1.25220698459282
C           -7.63407911977150       -0.86437926660122       -2.49726807246217
C           -6.90688516521708       -0.88228460163712       -3.67317781347410
C           -5.52414782917725       -0.89434863619380       -3.61566344802936
C           -4.88823012291632       -0.88951855925363       -2.39313546747180
C           -5.62180074617883       -0.87274813594909       -1.20194112954794
N           -4.95512235480201       -0.87368277419385        0.00922430102232
C           -3.53175976856846       -0.89682713278711        0.01136652188477
C           -2.85485570048038       -2.12333904513633        0.01096014171417
C           -1.48320700125925       -2.15046932249221        0.00913322042976
C           -0.71965808294760       -0.97190914048909        0.00762349307634
C            0.72132321081816       -0.97094158553482        0.00372859350451
C            1.48634336185276       -2.14852651587447        0.00182353608317
C            2.85793662959551       -2.11963337767100       -0.00290289128262
C            3.53331762685059       -0.89229146023462       -0.00582543778502
N            4.95665459944662       -0.86824341833744       -0.01075064151458
C            5.63018145165759       -0.87486484099823        1.19654832533971
C            4.90324209227729       -0.89192458949661        2.39179007227563
C            5.54602733992045       -0.90419044384207        3.61067527442546
C            6.92912373673032       -0.89956496310005        3.66038347940867
C            7.64976990998975       -0.88110912666855        2.48045336966809
C            7.02950342106023       -0.86803460755994        1.23892681244220
C            7.87376295976614       -0.84846593519311       -0.02049729107995
C            8.75015656545237        0.41752292805552       -0.00654934476402
C            8.75854634531520       -2.10864882171085       -0.04038597602654
C            7.02084701080159       -0.83486867384182       -1.27417042203431
C            7.63265402296993       -0.81538323161059       -2.51981043921391
C            6.90402246463698       -0.80539189695522       -3.69492054886750
C            5.52131840027857       -0.81537483617479       -3.63598148571921
C            4.88683530524026       -0.83495883372749       -2.41284648342481
C            5.62184337458367       -0.84437262196163       -1.22247884206725
C            2.81869589593326        0.28073183649608       -0.00365055137799
C            1.41556090126816        0.26388937738217        0.00110846774131
C            0.71071386124603        1.50754865268477        0.00347968580935
N            1.36011438716976        2.66277958697077        0.00146230971762
C            0.71966976781279        3.83461151862728        0.00446595402267
C            1.38989954682982        5.05537066218877        0.00282649432088
C            0.68958898032821        6.24778491780090        0.00687029046228
C           -0.69786982045273        6.24680272711871        0.01253237635578
C           -1.39646316675521        5.05338195653557        0.01394823992562
C           -0.72446073795960        3.83360581325614        0.00996317698428
N           -1.36325716164065        2.66088630167755        0.01106651194972
C           -0.71224221002139        1.50658053311217        0.00817398984037
C           -1.41545617723108        0.26201287868602        0.00939939644348
C           -2.81859859639281        0.27706880286750        0.01127856115970
C           -5.62710676773812       -0.85540560706270        1.21722329290873
C           -4.89877244269643       -0.85697861768788        2.41171346282438
C           -5.54009549298352       -0.84346950101542        3.63136398234581
C           -6.92306891054711       -0.82819005067251        3.68255542174946
C           -7.64509396530007       -0.82665370108618        2.50332539615868
C           -7.02633192175476       -0.84036529287998        1.26105448922145
H           -9.40573006363045       -2.10752236907227        0.88961207517027
H           -9.40399838647823       -2.11903942975444       -0.87092117874145
H           -8.15166875973663       -2.98836671070132        0.01632493841727
H           -8.09700883872123        1.31518272242580       -0.01215538752208
H           -9.36864561531403        0.46657290327835       -0.89209270898761
H           -9.37542737513190        0.47778443121705        0.86877381554698
H           -8.71184318068789       -0.85407959784795       -2.55846332066367
H           -7.41626698070752       -0.88595331545748       -4.62469722766313
H           -4.93847598590788       -0.90703473423635       -4.52263529587367
H           -3.81000237243894       -0.89687674741068       -2.35257176216929
H           -3.42542168285937       -3.04002151135583        0.01135919185134
H           -0.99172389769414       -3.10992973640750        0.00837248091067
H            0.99607678865963       -3.10860531910441        0.00386211891474
H            3.42966513325906       -3.03559057010490       -0.00427607940187
H            3.82476992274553       -0.89340758392234        2.35714340256694
H            4.96548328476344       -0.91679229183728        4.52094104819037
H            7.44385814612974       -0.90941219362313        4.60897735142534
H            8.72790285918793       -0.87704453732816        2.53556529251164
H            9.38258071022470        0.46136981970385       -0.88884484421051
H            9.38942744938266        0.43720494883044        0.87167668465197
H            8.11876195444451        1.30388376429526        0.00808229341507
H            9.39150470167467       -2.12441856381829       -0.92325374525076
H            9.39753126797881       -2.14796646979809        0.83739411612105
H            8.13332011941345       -2.99958434610267       -0.05017737613898
H            8.71038189844166       -0.80807376332273       -2.58210510433727
H            7.41229873531673       -0.79000808755479       -4.64691838269536
H            4.93460156178463       -0.80765108431548       -4.54233307157304
H            3.80864335182355       -0.84154178177902       -2.37100384578838
H            3.32479864491721        1.23385441972046       -0.00585315232311
H            2.46883286542723        5.04287078681892       -0.00154832347044
H            1.22902584901003        7.18283269255702        0.00568060140360
H           -1.23864397370464        7.18107256657281        0.01583234334150
H           -2.47537805690146        5.03928074876423        0.01824734925205
H           -3.32591091087123        1.22954615671916        0.01187975549758
H           -3.82037928785422       -0.86723788678797        2.37571952340109
H           -4.95855835896971       -0.84445136291343        4.54108061441545
H           -7.43666699892733       -0.81722652178269        4.63175678868195
H           -8.72310956860460       -0.81433394353000        2.55959266272220
