92
 energy: -138.248091281370 gnorm: 0.000152073562 xtb: 6.7.1 (edcfbbe)
C           -8.72984332865657       -1.87245610450857        1.09704806374250
C           -7.88122609722854       -0.84243798295314        0.32922246359907
C           -8.79219901555171        0.15385321075369       -0.41101800971362
C           -7.03433810985159       -1.57433543081245       -0.69401426598070
C           -7.65597980685926       -2.31827901092677       -1.68747403334701
C           -6.93901369418034       -2.98703973930355       -2.66201319799851
C           -5.55857631141683       -2.90311782198379       -2.66151195761118
C           -4.91528583161228       -2.17204152762774       -1.68541629562314
C           -5.63696540502640       -1.51585281837873       -0.68360682036030
N           -4.96141127185494       -0.79709783965213        0.29076267725215
C           -3.54312102516143       -0.81005262852966        0.29219218399442
C           -2.85620200395219       -1.94905676311054        0.71715187184054
C           -1.48075102333157       -1.97067997369551        0.72310589228618
C           -0.72702728928707       -0.86323301442008        0.31290469356892
C            0.72733470479273       -0.86180947419056        0.31439648071905
C            1.48256376021525       -1.96404200378875        0.73573398733537
C            2.85788259173588       -1.93991148448972        0.73213878072997
C            3.54419631475954       -0.80455994551570        0.29577055216372
N            4.96154843216394       -0.78885258872101        0.29791069902530
C            5.62935033478245       -0.03123023553799        1.24984556576625
C            4.90133238024161        0.70386218990349        2.19018776234377
C            5.53925747253835        1.46956911514079        3.14287901312989
C            6.92100698813665        1.51022285803961        3.18264743711196
C            7.64348367651203        0.76433341470452        2.27048551525362
C            7.02712006897390       -0.01565729887112        1.30134953779630
C            7.88201057792939       -0.83525468041596        0.35380074793937
C            8.80089325747902        0.11597294585868       -0.43439287245420
C            8.72209251617624       -1.82360942123706        1.18330629068461
C            7.03950224062056       -1.61939906239547       -0.63354410814195
C            7.66568776174321       -2.41605179384210       -1.58243478732856
C            6.95361543697310       -3.13099907452257       -2.52720964719047
C            5.57383395446087       -3.03843678632195       -2.54430746780671
C            4.92633350380399       -2.25588320589447       -1.61194335093677
C            5.64232247311003       -1.55616023462987       -0.63574038265834
C            2.82545229179942        0.29485942841875       -0.12857313287145
C            1.43014113672448        0.28059215817979       -0.11849374942862
C            0.71244445111370        1.45756556181654       -0.55865004863445
N            1.39661780078014        2.51386391734629       -0.95385204816733
C            0.71150130866280        3.59458411828575       -1.35199254886398
C            1.40235676357012        4.74762844676190       -1.78286003921484
C            0.70057726342275        5.84635572085277       -2.18755219815397
C           -0.70810126945818        5.84785718014219       -2.18120017489653
C           -1.40849477709595        4.75054355474387       -1.77035377983693
C           -0.71618645941092        3.59602764343368       -1.34579139471526
N           -1.39998442672042        2.51636557680905       -0.94262757298708
C           -0.71453368873200        1.45868785558742       -0.55339060007555
C           -1.43097050795904        0.28093006601339       -0.11340706790278
C           -2.82641735539126        0.29431377291983       -0.12159384761365
C           -5.63260187172593       -0.08970600034816        1.27726676232191
C           -4.90696546124302        0.59941664418419        2.25348104065537
C           -5.54803672450950        1.31257273828405        3.24414500586844
C           -6.92998237760066        1.34567650053577        3.28533919076816
C           -7.64988049244724        0.64809880528560        2.33358542055842
C           -7.03050491652627       -0.07800912336461        1.32545539213170
H           -9.36114193463409       -2.43873675036205        0.41786192008482
H           -8.07939580783818       -2.56920955820149        1.62265891981953
H           -9.36862046167294       -1.38313185153985        1.82705364238381
H           -8.18505969875056        0.87600436518143       -0.95371205757821
H           -9.43244817306036       -0.35954080838285       -1.12301175623253
H           -9.42531733624753        0.69407973354335        0.28740125579048
H           -8.73358595473492       -2.38018161966367       -1.70815225508556
H           -7.45455067003270       -3.55888784809244       -3.41843314223574
H           -4.97848753515614       -3.40351117708131       -3.42263377176636
H           -3.83849314837716       -2.10119575041680       -1.70097067719557
H           -3.41787208428888       -2.81390284131506        1.03834028257994
H           -0.98814208615353       -2.86879904282813        1.05852411413726
H            0.99118641728208       -2.85899631335385        1.08126103771826
H            3.42010468222789       -2.80023677275750        1.06438284981952
H            3.82305818166408        0.67098192717689        2.17669949933965
H            4.95327809191032        2.03116574265831        3.85517194452502
H            7.43265758468841        2.10819019258436        3.92131882431454
H            8.72146997468918        0.79200359846754        2.32204310857459
H            9.44418050886136       -0.43783371003017       -1.11253186134579
H            9.43129351583967        0.69237612952781        0.23697797170131
H            8.19952652129781        0.80852100441612       -1.02037889045036
H            9.35657903393489       -1.29636354539928        1.89032800309793
H            8.06584694541431       -2.48894932123617        1.74149485045246
H            9.35696553785154       -2.42779134692554        0.54108782211631
H            8.74311936512417       -2.48363013460494       -1.59047997966701
H            7.47245250366826       -3.74420497921172       -3.24813838596754
H            4.99760932384203       -3.57203489457566       -3.28555595715645
H            3.85042545585488       -2.17825533183207       -1.64350960513237
H            3.32735737862849        1.18676823871788       -0.46988731240185
H            2.48108126597718        4.72625247075593       -1.77939146608497
H            1.22338045416291        6.73161322609525       -2.51869613677416
H           -1.23201367085453        6.73415943081475       -2.50777412489677
H           -2.48718760042549        4.73128246005677       -1.75751407301309
H           -3.32985847861755        1.18825905206370       -0.45511823647791
H           -3.82845770068785        0.57192197233552        2.23655029317631
H           -4.96462960775171        1.83931803348015        3.98463274943615
H           -7.44403156504924        1.90183360585564        4.05439968730997
H           -8.72801309951241        0.67145330763784        2.38460187498385
