92
 energy: -138.247826049202 gnorm: 0.000039083836 xtb: 6.7.1 (edcfbbe)
C           -8.77078422160760       -2.01194374740380        0.00010987908730
C           -7.88017513150615       -0.75614819387092        0.00032463537556
C           -8.74994067653448        0.51423825884401        0.00046243684646
C           -7.03108579551916       -0.76167825111459       -1.25702233453208
C           -7.64819396573000       -0.76300514128854       -2.50018463113368
C           -6.92538181293815       -0.76639853099340       -3.67896281858693
C           -5.54340774225708       -0.76690633807861       -3.62524992689591
C           -4.90390217179257       -0.76509661223575       -2.40363155518906
C           -5.63316473817869       -0.76295909751651       -1.21117604131168
N           -4.96258214950092       -0.76404496949676        0.00043757553179
C           -3.54143473830267       -0.77996849742590        0.00050214830030
C           -2.85730595467912       -1.99620486530900        0.00131113880013
C           -1.48131226214522       -2.01909485139668        0.00134097851961
C           -0.72779740570285       -0.83829785219676        0.00057802910256
C            0.72784796337257       -0.83825351808528        0.00053171531481
C            1.48142972089871       -2.01900741037311        0.00107432046867
C            2.85742147019435       -1.99603793275690        0.00102900939552
C            3.54148165610125       -0.77976290983272        0.00041433538618
N            4.96262870495589       -0.76378117611012        0.00036471348187
C            5.63328243244380       -0.76123933370394        1.21193603862486
C            4.90408771467658       -0.76183775567818        2.40443503436040
C            5.54366422115681       -0.76213910441592        3.62601711197067
C            6.92564147752685       -0.76162883634750        3.67964975150150
C            7.64838579706512       -0.75978427286411        2.50082637983114
C            7.03120613501828       -0.76000252156350        1.25769920117154
C            7.88022353166671       -0.75618770352807        0.00029594096852
C            8.75021430120465        0.51404381957492       -0.00151728559061
C            8.77061025952140       -2.01213922735976        0.00205456780575
C            7.03115714476226       -0.76353293120343       -1.25705847601641
C            7.64828661864173       -0.76676526261751       -2.50020612670532
C            6.92549458865776       -0.77172630912408       -3.67899141964567
C            5.54351952791174       -0.77183104766335       -3.62530290989605
C            4.90399235732169       -0.76815101508620       -2.40369974239542
C            5.63323439953088       -0.76455856824076       -1.21123453499800
C            2.82617779764908        0.39943106143040       -0.00014598275664
C            1.43036971658832        0.38332950340253       -0.00009523990372
C            0.71327889528836        1.64029334869307       -0.00073362907266
N            1.39819420160095        2.76766459931826       -0.00123054084731
C            0.71382168733641        3.91961273285271       -0.00186146110524
C            1.40539191649226        5.15021470388782       -0.00238770328116
C            0.70420310599239        6.32136701063233       -0.00305367707741
C           -0.70460107607946        6.32132164758304       -0.00322449145334
C           -1.40571289889872        5.15012350609263       -0.00272321555098
C           -0.71406129469354        3.91956749043292       -0.00201936989845
N           -1.39836018310960        2.76757632787167       -0.00148513479221
C           -0.71337327683156        1.64024909230768       -0.00083299910299
C           -1.43038928250028        0.38324363707219       -0.00016738874963
C           -2.82619743179441        0.39926524472919       -0.00021227834384
C           -5.63325758959012       -0.76328386961250        1.21199699168070
C           -4.90408324298601       -0.76553630915649        2.40450711316923
C           -5.54368118160339       -0.76764652299333        3.62607641780613
C           -6.92565929838348       -0.76727260509344        3.67968534253392
C           -7.64838331711911       -0.76365554681752        2.50085323809865
C           -7.03118272173323       -0.76203934052851        1.25773817359685
H           -8.14971306813143       -2.90587962014657        0.00000400704298
H           -9.40724335928568       -2.03707792971837        0.88029559207377
H           -9.40718728197435       -2.03682927546519       -0.88012426370024
H           -8.11357813116281        1.39724936325312        0.00060599571806
H           -9.38547049824391        0.54974480055246       -0.88012354969184
H           -9.38552345331031        0.54950171347904        0.88101575647177
H           -8.72630832590545       -0.76118397159205       -2.55760876124755
H           -7.43797628063657       -0.76780234475527       -4.62885475049683
H           -4.95949750172280       -0.76829005548383       -4.53369711746065
H           -3.82504318008248       -0.76362465638994       -2.36806080724223
H           -3.42020538239905       -2.91787941997271        0.00189166165870
H           -0.98889638758417       -2.97789211179237        0.00195612835313
H            0.98906845977719       -2.97783267964196        0.00155973746577
H            3.42037413768667       -2.91768010051852        0.00143688198467
H            3.82522691160493       -0.76036262922778        2.36892412577991
H            4.95980587813506       -0.76237474495261        4.53449862095112
H            7.43829146222741       -0.76188194226775        4.62951261530423
H            8.72650339093178       -0.75797694820579        2.55818510686752
H            9.38578498487578        0.54805763839869       -0.88213064855822
H            9.38577323786013        0.55057967208548        0.87900373241359
H            8.11400699865602        1.39716521157631       -0.00278673997499
H            9.40706333670898       -2.03600749923098        0.88228017739089
H            8.14938258538936       -2.90596614535479        0.00334643840406
H            9.40700595486577       -2.03851070002057       -0.87814098718997
H            8.72640200044619       -0.76521623745676       -2.55761285485297
H            7.43810629451719       -0.77462801206324       -4.62887041203123
H            4.95962590370372       -0.77435270397331       -4.53375838965221
H            3.82513283250683       -0.76630133176980       -2.36814955075393
H            3.33013274853057        1.35316924444335       -0.00062937062036
H            2.48408474033910        5.12837031455242       -0.00224493110194
H            1.22744792503416        7.26625703645476       -0.00346152010863
H           -1.22790764825787        7.26617744645891       -0.00376778592028
H           -2.48440433998916        5.12820655345558       -0.00284124129798
H           -3.33020693189359        1.35297445889682       -0.00081383964730
H           -3.82522154930918       -0.76387674665168        2.36901605099667
H           -4.95983942964077       -0.76915717666566        4.53456741943661
H           -7.43832630452819       -0.76895440395845        4.62953728793112
H           -8.72650151159794       -0.76190607200767        2.55819588138552
