92
 energy: -138.207114704257 gnorm: 0.000088301433 xtb: 6.7.1 (edcfbbe)
C           -8.75819395661706       -1.83723642763694        1.04614693903443
C           -7.87298798784403       -0.78108835212869        0.35896315280871
C           -8.74883345940591        0.27900613990272       -0.33398408035003
C           -7.02263816425897       -1.46807386642986       -0.69171338701819
C           -7.63713131172442       -2.14391653718635       -1.73666922828709
C           -6.91110772643209       -2.78038099070879       -2.72642857613500
C           -5.52831634525844       -2.74133451177875       -2.68464486071441
C           -4.89128170647397       -2.07806916504239       -1.65833432623427
C           -5.62352349170683       -1.44222851541207       -0.64983605035312
N           -4.95537398028383       -0.79336375598926        0.37210092941847
C           -3.53242456664167       -0.81257080330075        0.38463410330679
C           -2.85551061581875       -1.91157211342475        0.92946022418809
C           -1.48389964043682       -1.93476233001122        0.94482452509696
C           -0.71991675448439       -0.87599647778430        0.42777162647177
C            0.72099446682661       -0.87324113995310        0.43208483063554
C            1.48582933085572       -1.92890425134370        0.95419434024793
C            2.85739838465119       -1.90141480592987        0.94522626673881
C            3.53347078417981       -0.80104763201652        0.40208946226891
N            4.95641449751851       -0.78014630776480        0.39192313310323
C            5.62657523927481       -0.11760535231992        1.40408981306541
C            4.89739822210380        0.51737659633629        2.41520142346695
C            5.53732582772699        1.18493438631183        3.43691269135478
C            6.92017155875821        1.22909275135595        3.47155732453137
C            7.64327831433544        0.59495998602777        2.47827139702199
C            7.02582894679295       -0.08469078299379        1.43744406909704
C            7.87406951070792       -0.77121861350952        0.38464688792559
C            8.75383702543487        0.28602669136742       -0.30769971814288
C            8.75537609852953       -1.82806687926348        1.07576633431131
C            7.02509191751416       -1.45826818472959       -0.66708408075623
C            7.64095385358280       -2.13603766361018       -1.70998903370676
C            6.91626980976751       -2.77280944656058       -2.70051272715886
C            5.53345988781613       -2.73209540289854       -2.66161724159324
C            4.89509268448484       -2.06699370366141       -1.63734469285561
C            5.62594889693648       -1.43089544152524       -0.62798683158734
C            2.81873273365746        0.25007942271930       -0.11881524793890
C            1.41566449926169        0.23544963967662       -0.11105108222030
C            0.71105562314063        1.35279982579595       -0.65752364413946
N            1.36073360674461        2.39284391271169       -1.16006101342258
C            0.72074036611120        3.44639086592920       -1.67348111270177
C            1.39121532949675        4.54640315972373       -2.20244720465347
C            0.69125729526823        5.61904279582697       -2.72385254841545
C           -0.69617868086984        5.61624637168964       -2.72826634255166
C           -1.39508857090310        4.54082489989269       -2.21121438617195
C           -0.72353522366811        3.44354811763585       -1.67793482046391
N           -1.36252543132762        2.38759994592608       -1.16825939966387
C           -0.71186220839960        1.35012058414561       -0.66169722225262
C           -1.41548041923912        0.23031007196908       -0.11905841929028
C           -2.81852157503656        0.24059451322592       -0.13326143696652
C           -5.62686774416538       -0.13229822724835        1.38438749604125
C           -4.89903283964320        0.49963071325975        2.39840929183763
C           -5.54025237979041        1.16579471942756        3.42019498821062
C           -6.92309879459080        1.21169927870880        3.45199083204525
C           -7.64490418945640        0.58052063715639        2.45587742966921
C           -7.02612590154719       -0.09784489912410        1.41499636791864
H           -9.39213416256541       -2.34233735391509        0.32273292957441
H           -8.13326978557899       -2.58254960225464        1.53476526369057
H           -9.39631872916200       -1.37965946249638        1.79696043729313
H           -8.11702997142532        1.02073818905925       -0.81892493914285
H           -9.38466094059797       -0.17587992803192       -1.08839284842101
H           -9.38463795657230        0.78751201648405        0.38539656040293
H           -8.71500827040552       -2.17801564173238       -1.78606557683058
H           -7.42139997286378       -3.29803848072836       -3.52423822028058
H           -4.94346346710941       -3.22600041180467       -3.45199996601118
H           -3.81307370242901       -2.04490942010757       -1.63311982555993
H           -3.42615174620326       -2.73476378486678        1.33271651100749
H           -0.99280173987164       -2.79482204146996        1.37053776489530
H            0.99542894703227       -2.79010338338244        1.37839811491005
H            3.42872242055781       -2.72259101465645        1.35161540922626
H            3.81919848369072        0.48336341105848        2.39385189668048
H            4.95460359675309        1.66961396104936        4.20584422563367
H            7.43271609931191        1.74976096562313        4.26595769499108
H            8.72125910248565        0.63356291552809        2.52161267918824
H            9.39042638407724       -0.17122862646314       -1.06002161684182
H            9.38912119772251        0.79409907172498        0.41243417159029
H            8.12478026550305        1.02848813269435       -0.79509565519524
H            9.39278476338022       -1.37052496931282        1.82721266023012
H            8.12769876944437       -2.57112774037103        1.56430666147762
H            9.38979667161458       -2.33587532116249        0.35467216032927
H            8.71889540794859       -2.17150279824478       -1.75707393489901
H            7.42759051267897       -3.29201673005840       -3.49666252725610
H            4.94955088248066       -3.21693884320372       -3.42959550345918
H            3.81688142158848       -2.03265723592804       -1.61455231689668
H            3.32494435975643        1.10549180439384       -0.53912337184408
H            2.47015787142022        4.53671088052736       -2.19311886138762
H            1.23102169386584        6.46167534900289       -3.12874294871497
H           -1.23676012738011        6.45666738494102       -3.13664847638184
H           -2.47402050351529        4.52676554693855       -2.20869760667681
H           -3.32544402401399        1.09475259404824       -0.55526758345227
H           -3.82084493283767        0.46441524711815        2.37935841489021
H           -4.95848115277237        1.64809104714988        4.19134258749772
H           -7.43663765220582        1.73147234423720        4.24633249317113
H           -8.72291813077535        0.62053694543465        2.49696008518268
