65
 energy: -105.613650883161 gnorm: 0.000115252566 xtb: 6.7.1 (edcfbbe)
C           -6.17278900887548       -1.76235823683678       -0.00020996863011
C           -5.64850660377401       -0.31395311010094       -0.00004614825864
C           -6.82666621228558        0.67828830306528        0.00004270071324
C           -4.82723377203500       -0.09492149960815       -1.25763110506922
C           -5.42815806380799       -0.23413331072345       -2.50161830210654
C           -4.73084910974081       -0.04554780579671       -3.68110376721472
C           -3.39036165117497        0.29126206004461       -3.62831085843209
C           -2.76699398194047        0.43323978471313       -2.40583883951800
C           -3.47073733539221        0.24309642761322       -1.21334621953100
N           -2.81508209919506        0.39299861202364        0.00007546850901
C           -1.43786461838562        0.74224653604610        0.00015089500170
C           -1.08013683391440        2.11276284323179        0.00041658845439
C            0.22892512181522        2.49443580073410        0.00050321870553
C            1.24685926991525        1.51416701822553        0.00033073460164
N            2.53360700372550        1.88467399053248        0.00038432295352
C            3.45516005156779        0.93877326860691        0.00021461213973
C            4.85115907293959        1.31983157019384        0.00020755995084
C            5.18832171586608        2.67840584840709        0.00046027950105
C            6.50052572716133        3.08128090037353        0.00046638339007
C            7.50744267080017        2.10688369284656        0.00020352045249
C            8.86613395506688        2.49909111393821        0.00018931419352
N            9.96832872054439        2.81771309364231        0.00017964121541
C            7.18749313497351        0.75511571492706       -0.00006013718101
C            5.85683287148847        0.33044925053286       -0.00004022063791
C            5.48957702889576       -1.08128596993376       -0.00021351618372
C            6.44452571689334       -2.10064340673842       -0.00046303218510
C            6.06476977089134       -3.43684027455649       -0.00060879437636
C            7.06013651339947       -4.44146846815702       -0.00089496877224
N            7.86770001474491       -5.25638505083065       -0.00107154203588
C            4.71080111727106       -3.79726306829827       -0.00049017493127
C            3.76128581788503       -2.80590346793140       -0.00029561978773
C            4.12945010016292       -1.45543839775627       -0.00017028893316
C            3.09580599759092       -0.44246733984093        0.00001219646069
N            1.83086133043423       -0.82030600259175       -0.00005024650576
C            0.88724020456430        0.13102590627282        0.00008678523483
C           -0.47559907594369       -0.23259325242053       -0.00000499395313
C           -3.47078362324825        0.24285862910335        1.21344230431293
C           -2.76707864856523        0.43275138055537        2.40599810260932
C           -3.39047826944240        0.29048816863504        3.62842023891793
C           -4.73095921025910       -0.04636544621803        3.68109906635005
C           -5.42823155085679       -0.23469853899568        2.50155112848973
C           -4.82727544118765       -0.09519077093989        1.25761246769281
H           -6.77962717952733       -1.95439759530508        0.88032258578281
H           -6.77959516635056       -1.95421151676760       -0.88080548020447
H           -5.33677208415388       -2.45987786977953       -0.00026756711551
H           -7.44894028810421        0.54137818735321        0.87982625150021
H           -6.45190603498433        1.70053261374751        0.00014821938668
H           -7.44892629508227        0.54155534643644       -0.87977809588785
H           -6.47309177154864       -0.49848746791675       -2.55888699072709
H           -5.23062040298975       -0.16117826836197       -4.63104797666526
H           -2.82603829589226        0.44411247193372       -4.53658121461774
H           -1.72011439938864        0.69514538013310       -2.37203954938156
H           -1.87106442846351        2.84801661284139        0.00054838308403
H            0.51945672155847        3.53334603144608        0.00069078110763
H            4.38430422654828        3.39715313912713        0.00066256728861
H            6.76405542572655        4.12784830023391        0.00063650933259
H            7.99859829011010        0.04494364984250       -0.00026090099827
H            7.49890062233598       -1.87589160510121       -0.00062331422903
H            4.43133433259813       -4.83971734091562       -0.00055325347495
H            2.70872429346318       -3.04097817603833       -0.00014831675828
H           -0.73553094292858       -1.27990794468817       -0.00018750867351
H           -1.72020180351098        0.69467892870419        2.37228771774280
H           -2.82618207049373        0.44313926255644        4.53674067212124
H           -5.23075535732921       -0.16221361394859        4.63100328430364
H           -6.47316621018285       -0.49906702152086        2.55873241148344
