65
 energy: -105.572140317757 gnorm: 0.000070083339 xtb: 6.7.1 (edcfbbe)
C           -7.05597429273545       -1.89137803340452        0.41721301183959
C           -6.55738921955786       -0.46968967110277        0.08996520439793
C           -7.75520593671413        0.47014316665656       -0.15203079428333
C           -5.72316749491846       -0.52627883376832       -1.17211431022246
C           -6.29266672669950       -0.97753458245189       -2.35533924699763
C           -5.57444785438463       -1.04387236377209       -3.53535964852687
C           -4.24538854207340       -0.64725569494142       -3.55083214800961
C           -3.65285016644803       -0.19530655110067       -2.39337213540695
C           -4.37594900155219       -0.13136210219781       -1.19337991531122
N           -3.75454066475193        0.32340415851627       -0.04899933967518
C           -2.38683978928037        0.72194076686464       -0.11867761340717
C           -2.07093212535361        2.05791242871690       -0.35211740186506
C           -0.74958417981642        2.45550128956971       -0.42054126594844
C            0.28519312143197        1.53152188604466       -0.25975167856691
N            1.57062654656793        1.89172793804965       -0.32192081051717
C            2.54099062162725        1.00047859131798       -0.16874572190670
C            3.91221106620856        1.39948337343036       -0.23494666570316
C            4.21905506235290        2.75424346222274       -0.46045440439493
C            5.51397397561883        3.18607726507435       -0.52922412844297
C            6.55584167011627        2.25120961516237       -0.37265075534841
C            7.89732202311643        2.67805632463536       -0.44196738675064
N            8.99021099081537        3.02831446276944       -0.50068400971507
C            6.27232703760217        0.91170704371560       -0.15011980190870
C            4.95514373667237        0.45139593511803       -0.07588461922531
C            4.62395922933855       -0.93745913021266        0.15486236336335
C            5.59551217523815       -1.92882772828979        0.31575215593290
C            5.24447701440357       -3.25275779532138        0.53518001150882
C            6.25276598801045       -4.22523847979049        0.69106232077697
N            7.07235003228320       -5.02077618759344        0.81725360863730
C            3.88948601336830       -3.63155659566543        0.60079820214531
C            2.92500886452341       -2.67562990607853        0.44569812557821
C            3.26205936582181       -1.32772461829255        0.22224091741749
C            2.21410474034932       -0.36754434820397        0.06481711482461
N            0.94306109766578       -0.74016943883950        0.13185478149767
C           -0.04496333199845        0.14892774815398       -0.01957270153039
C           -1.38579653944503       -0.22565488197581        0.04692317145553
C           -4.41399156841860        0.41433589551201        1.15907583436318
C           -3.72378064424341        0.87563989086485        2.28948140262691
C           -4.35597114408380        0.98004874981442        3.50791012017263
C           -5.69190307279799        0.62549171836433        3.62407556418802
C           -6.37485928298412        0.16548874450162        2.51292160224593
C           -5.76458903775801        0.04770355934487        1.27129342628598
H           -6.20836050465649       -2.55188623540892        0.59044953869966
H           -7.67568380515767       -1.88625350518532        1.30879419987660
H           -7.64298336830862       -2.29236184136110       -0.40349524362170
H           -8.38886483162363        0.52066371396802        0.72821364260251
H           -7.40081474181709        1.47370180364294       -0.37983557592831
H           -8.35680981254310        0.12050566421469       -0.98553087900017
H           -7.32587764929450       -1.28724599478650       -2.36276136176591
H           -6.04746467424737       -1.40051021250430       -4.43737729474782
H           -3.67184772848688       -0.68993656411439       -4.46424919434425
H           -2.61966559421823        0.11427382769196       -2.40681585982093
H           -2.86388774752379        2.77902594261234       -0.47769448851467
H           -0.49059106104018        3.48674382052511       -0.60083927429160
H            3.39615924821066        3.44263982361573       -0.57623990442746
H            5.75078120311136        4.22516349785858       -0.70117295202744
H            7.10222025474219        0.23216555132640       -0.03568298394250
H            6.64547193412683       -1.68542928483034        0.27202092757747
H            3.63217296935771       -4.66592204861413        0.77163578399366
H            1.87735319566620       -2.93023827203430        0.48977973824656
H           -1.63009936786545       -1.26067186919644        0.22797678944016
H           -2.68441660177894        1.15002648268795        2.20062153063900
H           -3.80756535462373        1.33705994261946        4.36638686204508
H           -6.19682513787193        0.70534692018163        4.57442651800809
H           -7.41229162462903       -0.10850291650480        2.62277541293308
