  65
       -105.56919438
 C         -4.6413043688       -0.0676535175        2.4274042061
 C         -5.6879511498       -0.4022352252        1.3453779768
 C         -6.9813911048       -0.8121461746        2.0486989179
 C         -5.1411960732       -1.4997211168        0.4484713099
 C         -5.5741271363       -2.8165324674        0.4663259225
 C         -5.0351990658       -3.7534170385       -0.3994678051
 C         -4.0747859216       -3.3787326038       -1.3220123859
 C         -3.6356456671       -2.0686006670       -1.3632340096
 C         -4.1419477636       -1.1415363420       -0.4615337787
 N         -3.7456566038        0.2135943506       -0.5063719870
 C         -2.4376222628        0.6206133507       -0.3986050874
 C         -2.1344152928        2.0082725276       -0.2638446233
 C         -0.8558040023        2.4570485399       -0.1610201672
 C          0.2263841917        1.5477150640       -0.1667664673
 N          1.4806906849        1.9872294206       -0.0834661298
 C          2.4520090083        1.0861532166       -0.0542521870
 C          3.8202215223        1.5379277683        0.0359377956
 C          4.0852694123        2.9120885862        0.0848682210
 C          5.3706146824        3.3813815961        0.1767493825
 C          6.4270120048        2.4614821002        0.2227965983
 C          7.7589013629        2.9223719190        0.3213800888
 N          8.8404811222        3.2960465050        0.4020523661
 C          6.1794185898        1.0961317133        0.1731453452
 C          4.8766944993        0.6034872129        0.0775330024
 C          4.5846240741       -0.8229683498        0.0217287909
 C          5.5894833713       -1.7925635281        0.0488064558
 C          5.2811859012       -3.1449895394       -0.0061565913
 C          6.3251516248       -4.0972701061        0.0211770246
 N          7.1718096769       -4.8707184180        0.0442827670
 C          3.9493989321       -3.5723650196       -0.0894688551
 C          2.9518605082       -2.6310171187       -0.1180773030
 C          3.2480814984       -1.2643165020       -0.0649004462
 C          2.1634349553       -0.3070946562       -0.1032940849
 N          0.9241859927       -0.7550173986       -0.1880271509
 C         -0.0687156200        0.1487716850       -0.2284647168
 C         -1.3949313144       -0.2873610440       -0.3313067294
 C         -4.8493581956        1.0910595426       -0.4616984396
 C         -4.9670851114        2.1427658296       -1.3621144682
 C         -6.0820470950        2.9590543492       -1.3251420626
 C         -7.0875447908        2.7074992139       -0.4087928484
 C         -6.9897361184        1.6310065894        0.4572086470
 C         -5.8754491591        0.8066625907        0.4450098932
 H         -4.4750717918       -0.9372373766        3.0596889455
 H         -3.6887414463        0.2242479680        1.9940757819
 H         -5.0005946692        0.7512560929        3.0472154092
 H         -7.3335797558       -0.0046544843        2.6856480387
 H         -7.7569097769       -1.0602155354        1.3275494193
 H         -6.8032043902       -1.6726467438        2.6885737841
 H         -6.3389231789       -3.1289950754        1.1584394125
 H         -5.3803202938       -4.7754437312       -0.3622067035
 H         -3.6757667307       -4.1003201308       -2.0183808814
 H         -2.9162274021       -1.7565475363       -2.1049992561
 H         -2.9462103167        2.7167351940       -0.2122187047
 H         -0.6386347052        3.5086901901       -0.0571343672
 H          3.2441597580        3.5865200092        0.0485225897
 H          5.5801412587        4.4397890273        0.2149037210
 H          7.0258968717        0.4288082246        0.2122413770
 H          6.6296979979       -1.5145953185        0.1118081123
 H          3.7266882639       -4.6279208397       -0.1307863412
 H          1.9134182182       -2.9158436344       -0.1830273708
 H         -1.5642420292       -1.3510260829       -0.3356521318
 H         -4.1938318335        2.3050133780       -2.0985019162
 H         -6.1694033958        3.7800506073       -2.0202628640
 H         -7.9605350129        3.3412968216       -0.3760980776
 H         -7.7975960335        1.4440240027        1.1456218740
