  72
  -109.574221604300       0.472881795015986      !
 C          1.4429552029       -0.3137011036        3.5268163480
 C          2.5870717318       -0.0049058258        2.8400064541
 C          2.7382164943       -0.3377771080        1.4639544340
 C          3.8889558482        0.0456245935        0.7209752853
 C          5.1384422385        0.2023053915        1.3645066930
 C          6.3086713112        0.2260151249        0.6654842444
 C          6.2938711563        0.1231878842       -0.7495328182
 C          5.1052299892        0.0742197007       -1.4174570598
 C          3.8676899701        0.1471354981       -0.7417192328
 C          2.6745912563        0.4457995097       -1.4606719373
 C          2.5117019300        0.0677973169       -2.8219102796
 C          1.3400387473        0.3032456265       -3.4919477075
 C          0.2727493341        0.9469662205       -2.8679083092
 C          0.4079571366        1.3426545159       -1.5313554115
 N         -0.6588528383        2.0140563352       -0.9131863992
 C         -0.5815033512        3.2108904663       -0.2326407972
 C          0.5211222885        4.0126599552        0.0305636062
 C          0.3114049801        5.1980600163        0.7098095413
 C         -0.9620902319        5.5888410230        1.1160365191
 C         -2.0674966879        4.8083163221        0.8348298179
 C         -1.8824876117        3.6148693228        0.1518104810
 C         -2.7827734236        2.6071254141       -0.3376418041
 C         -4.1616081014        2.4598569563       -0.3028428465
 C         -4.7236337024        1.3537659239       -0.9113356983
 C         -3.9261482929        0.3869968275       -1.5192501549
 C         -2.5506069426        0.5037708126       -1.5528960117
 C         -1.9822362456        1.6376337537       -0.9864445535
 C          1.5782114524        1.1060235854       -0.8435866562
 C          1.6644416237       -1.0453997880        0.8580764361
 C          0.5209993380       -1.3513317414        1.5613719092
 N         -0.5215751946       -2.0598169989        0.9434400578
 C         -0.3963866010       -3.2341002963        0.2324574124
 C          0.7387195644       -3.9805785826       -0.0544944573
 C          0.5778638682       -5.1528282264       -0.7687541965
 C         -0.6790970266       -5.5844835785       -1.1851743897
 C         -1.8160269568       -4.8602017325       -0.8798931276
 C         -1.6804007038       -3.6803793307       -0.1624103586
 C         -2.6199031974       -2.7210609039        0.3505848510
 C         -4.0030702843       -2.6233424824        0.3149557570
 C         -4.6063149141       -1.5495911567        0.9419457776
 C         -3.8466299014       -0.5661152717        1.5710722777
 C         -2.4680271853       -0.6349507225        1.6091804230
 C         -1.8579045215       -1.7363534565        1.0226069335
 C          0.3914949004       -0.9896648281        2.9084016345
 H          1.3478675571       -0.0323776046        4.5655422192
 H          3.3633169494        0.5521875283        3.3395501652
 H          5.1762781205        0.2041509638        2.4430911000
 H          7.2543325630        0.2888215245        1.1821123737
 H          7.2273513142        0.1232295381       -1.2913206002
 H          5.1139127165        0.0809513840       -2.4968208458
 H          3.3034587571       -0.4671007325       -3.3216105938
 H          1.2361144464       -0.0115715884       -4.5200998628
 H         -0.6289346007        1.1765828756       -3.4120421167
 H          1.5094051866        3.7321580893       -0.2988579072
 H          1.1539702370        5.8386438872        0.9240020203
 H         -1.0847307548        6.5226137203        1.6440143330
 H         -3.0572334393        5.1223447122        1.1301078010
 H         -4.7789111981        3.1993229056        0.1849107903
 H         -5.7958083413        1.2275644167       -0.9080097485
 H         -4.3926728735       -0.4766995969       -1.9680256545
 H         -1.9405881654       -0.2643546602       -2.0024391377
 H          1.6759959953        1.4639793033        0.1680275543
 H          1.7603785794       -1.3851888470       -0.1597426178
 H          1.7148241795       -3.6676939187        0.2820904673
 H          1.4463882574       -5.7498754649       -1.0040222957
 H         -0.7630473114       -6.5050453275       -1.7430357053
 H         -2.7919062939       -5.2063668622       -1.1851745188
 H         -4.5921563642       -3.3749298872       -0.1889162091
 H         -5.6822571516       -1.4616416957        0.9363214988
 H         -4.3456465092        0.2730338351        2.0313678045
 H         -1.8861581493        0.1446281062        2.0761547018
 H         -0.4884986082       -1.2714653313        3.4634124403
  72
  -109.573503084300       0.221077052571496      !
 C          3.3550622602       -4.0288131454        1.2977023286
 C          3.9730773426       -2.8064727929        1.2876951625
 C          3.2350401070       -1.5960159373        1.1737247137
 C          3.8615497840       -0.3209882896        1.2363936201
 C          5.0878173180       -0.1449707724        1.9204192573
 C          5.4992016234        1.0837471465        2.3436434191
 C          4.7051912750        2.2329319337        2.0852603356
 C          3.5754896570        2.1242080158        1.3281479077
 C          3.1817601959        0.8904437305        0.7682605482
 C          2.2687908244        0.8506480579       -0.3219674367
 C          2.3659153134       -0.1582825578       -1.3251870841
 C          1.4949465939       -0.1884462918       -2.3870178056
 C          0.4553083789        0.7277401648       -2.4862758151
 C          0.3336856353        1.7233627880       -1.5003314179
 N         -0.7118846659        2.6520682296       -1.5891699211
 C         -0.5847788501        4.0227794871       -1.5335371723
 C          0.5622523971        4.7991694144       -1.4413718763
 C          0.4115619026        6.1728403506       -1.4336830981
 C         -0.8457022191        6.7660452873       -1.5222244283
 C         -1.9897873667        5.9982824792       -1.6363809600
 C         -1.8643948847        4.6169295846       -1.6458615241
 C         -2.8056426184        3.5353799973       -1.7592898376
 C         -4.1869570632        3.4741194346       -1.8693857573
 C         -4.7916305422        2.2314138498       -1.9220495578
 C         -4.0380205393        1.0620385210       -1.8523897130
 C         -2.6607029728        1.0961681604       -1.7447626047
 C         -2.0478811309        2.3411394532       -1.7173606756
 C          1.2359451468        1.8034949172       -0.4652267460
 C          1.8214705789       -1.7246876576        1.0593810541
 C          1.2152166322       -2.9607418455        1.1020623692
 N         -0.1956822522       -3.0563727630        1.0683004750
 C         -1.0006215584       -2.8208234683       -0.0177359432
 C         -0.6401678942       -2.4611983477       -1.3077451652
 C         -1.6493580316       -2.3214449378       -2.2406354804
 C         -2.9848216412       -2.5375231910       -1.9032248111
 C         -3.3472198340       -2.9064572744       -0.6210692319
 C         -2.3515575825       -3.0581737091        0.3337190552
 C         -2.3420916803       -3.4647309547        1.7120383115
 C         -3.3294164017       -3.8333359207        2.6146306369
 C         -2.9547072492       -4.1870159144        3.8973547498
 C         -1.6167807561       -4.1720251719        4.2877604611
 C         -0.6148143968       -3.8074019921        3.4094833154
 C         -0.9853714716       -3.4591158301        2.1177463106
 C          1.9659537571       -4.1318476905        1.2197585212
 H          3.9471126299       -4.9297897270        1.3687451544
 H          5.0499315260       -2.7661397115        1.3300321407
 H          5.6664728658       -1.0121731901        2.1990294021
 H          6.4123933895        1.1899504112        2.9093351105
 H          5.0284292339        3.1940177231        2.4548589981
 H          3.0302084098        3.0180820643        1.0634037249
 H          3.1847036131       -0.8585959592       -1.2782582499
 H          1.6221858232       -0.9279685670       -3.1651310931
 H         -0.2270402478        0.7132969039       -3.3204987772
 H          1.5399422961        4.3447734253       -1.3884275629
 H          1.2875753828        6.7997660487       -1.3593362002
 H         -0.9226114665        7.8427798597       -1.5089530820
 H         -2.9615391320        6.4606022696       -1.7204306359
 H         -4.7746752234        4.3787946966       -1.9059074620
 H         -5.8658803401        2.1631282948       -2.0064417334
 H         -4.5379889842        0.1055146274       -1.8729469558
 H         -2.0870221354        0.1856344609       -1.6706251776
 H          1.0966504306        2.5614700456        0.2897348338
 H          1.2014526727       -0.8429480476        1.0352675485
 H          0.3948160777       -2.3028984135       -1.5628407499
 H         -1.3995488221       -2.0463822299       -3.2549548582
 H         -3.7435709828       -2.4224809975       -2.6631726898
 H         -4.3814735234       -3.0845012020       -0.3675363204
 H         -4.3674389244       -3.8430121497        2.3180645189
 H         -3.7084681178       -4.4790614048        4.6131274265
 H         -1.3591355945       -4.4509058186        5.2986560713
 H          0.4218594426       -3.7918159382        3.7109411844
 H          1.4724180697       -5.0904200864        1.2521755381
  72
  -109.573278924900       0.174392232866261      !
 C          1.4821259911       -0.2679947792        3.5126049919
 C          2.6294335686        0.0196171756        2.8220479039
 C          2.7743612153       -0.3244115720        1.4489589956
 C          3.9348070077        0.0396386350        0.7084965541
 C          5.1813614722        0.1684390052        1.3619488187
 C          6.3582755995        0.1963154095        0.6736802531
 C          6.3529307069        0.1230665002       -0.7426235875
 C          5.1691143421        0.0925230273       -1.4188920381
 C          3.9243671920        0.1593830326       -0.7527450501
 C          2.7398057814        0.4654332788       -1.4810880904
 C          2.5982247285        0.1153846535       -2.8530124529
 C          1.4309457747        0.3456907508       -3.5314597267
 C          0.3418809856        0.9494484732       -2.9039636769
 C          0.4546190202        1.3172904212       -1.5574982620
 N         -0.6399847816        1.9355453231       -0.9327852395
 C         -0.6139805671        3.1080900237       -0.2075849711
 C          0.4567528927        3.9328525821        0.1101778849
 C          0.1966639470        5.0793576347        0.8372965050
 C         -1.0957299754        5.4114084990        1.2354533412
 C         -2.1702850716        4.6106172493        0.8971051766
 C         -1.9344180704        3.4547244973        0.1670100657
 C         -2.7923052834        2.4372910426       -0.3754963387
 C         -4.1657572096        2.2440721635       -0.3736384877
 C         -4.6782177616        1.1361936979       -1.0213137089
 C         -3.8367378437        0.2108407077       -1.6344314416
 C         -2.4661364845        0.3762292123       -1.6403808793
 C         -1.9479039115        1.5160603011       -1.0384395449
 C          1.6257918840        1.0990380120       -0.8652967935
 C          1.6869188455       -1.0131264381        0.8447676781
 C          0.5354918334       -1.2894140699        1.5493808163
 N         -0.5329892996       -1.9631892981        0.9368086518
 C         -0.4551975092       -3.1347164039        0.2135592935
 C          0.6527453793       -3.9040719876       -0.1153518799
 C          0.4434155263       -5.0645179550       -0.8367787465
 C         -0.8348371834       -5.4639639286       -1.2183982569
 C         -1.9450405863       -4.7185750757       -0.8689507541
 C         -1.7603394238       -3.5499577887       -0.1443950021
 C         -2.6630557039       -2.5767178953        0.4063616528
 C         -4.0446190052       -2.4548103421        0.4207237631
 C         -4.6059724448       -1.3738729971        1.0732454463
 C         -3.8062000305       -0.4051288542        1.6750809667
 C         -2.4288468099       -0.4991360433        1.6644259424
 C         -1.8595370715       -1.6116990435        1.0576733043
 C          0.4183736947       -0.9262843110        2.8967382114
 H          1.3931227650        0.0189013921        4.5503351041
 H          3.4134700140        0.5698433790        3.3168853740
 H          5.2118904694        0.1447962592        2.4405247676
 H          7.2999164435        0.2388891326        1.1996267261
 H          7.2901398300        0.1273770677       -1.2781106342
 H          5.1874601057        0.1169764723       -2.4976790663
 H          3.4038893478       -0.3942136766       -3.3566632229
 H          1.3456799111        0.0550444363       -4.5684281314
 H         -0.5592744081        1.1703750756       -3.4524298129
 H          1.4594554638        3.6997731404       -0.2120883076
 H          1.0144956928        5.7348224696        1.0973302295
 H         -1.2575467262        6.3145750006        1.8044994106
 H         -3.1747976724        4.8794183841        1.1870647840
 H         -4.8172680548        2.9490463345        0.1204584836
 H         -5.7453035772        0.9746766519       -1.0437220610
 H         -4.2648435713       -0.6586918432       -2.1096637573
 H         -1.8212773192       -0.3594916620       -2.0957871988
 H          1.7092517935        1.4473880373        0.1505053415
 H          1.7769291493       -1.3570444277       -0.1720011998
 H          1.6459070365       -3.6188172205        0.1943968151
 H          1.2908189249       -5.6775932268       -1.1053968359
 H         -0.9566756037       -6.3757321642       -1.7836964375
 H         -2.9376912867       -5.0392177454       -1.1466806456
 H         -4.6646522045       -3.1937109881       -0.0642785821
 H         -5.6796450470       -1.2679612895        1.1086247479
 H         -4.2729936869        0.4420470173        2.1541744651
 H         -1.8175465809        0.2698826371        2.1111220451
 H         -0.4646681490       -1.1919186529        3.4547727085
  72
  -109.573013219300       0.131648919546257      !
 C          3.4371656671       -4.0043815824        0.9603998419
 C          4.0459982699       -2.7918755990        1.1520623420
 C          3.2982754293       -1.5862156276        1.1885195450
 C          3.9072333304       -0.3064110500        1.3224114435
 C          5.1164370028       -0.1364190652        2.0286451994
 C          5.5130995025        1.0929929418        2.4698587009
 C          4.7187206606        2.2386560623        2.2033135692
 C          3.5972633463        2.1320917156        1.4333568675
 C          3.2138956107        0.8984792256        0.8652340310
 C          2.2902468463        0.8343826994       -0.2139252942
 C          2.3782936619       -0.2074072171       -1.1898764535
 C          1.4637094478       -0.3055451968       -2.2102136811
 C          0.3945436085        0.5730218640       -2.2969052139
 C          0.2950889609        1.6163398135       -1.3538733572
 N         -0.7757600788        2.5120918083       -1.4535293888
 C         -0.6914571844        3.8876561605       -1.4758482000
 C          0.4299242833        4.7046947686       -1.4323216159
 C          0.2355632872        6.0710107715       -1.5072117824
 C         -1.0397699739        6.6177354266       -1.6285557895
 C         -2.1585654571        5.8082312228       -1.6952250605
 C         -1.9889489085        4.4335146530       -1.6230058744
 C         -2.8954010860        3.3182076245       -1.6800847914
 C         -4.2728811070        3.2088299060       -1.7988089671
 C         -4.8383144481        1.9466866710       -1.7944614665
 C         -4.0499919455        0.8065570753       -1.6582149662
 C         -2.6755917443        0.8886615721       -1.5385477135
 C         -2.1012403717        2.1522335219       -1.5711948652
 C          1.2371838877        1.7646528821       -0.3628199270
 C          1.8849053134       -1.7102294273        1.0777491116
 C          1.2871415244       -2.9416398857        0.9260812640
 N         -0.1282182513       -3.0197652342        0.9125562082
 C         -0.9382499641       -2.9163661815       -0.1884336605
 C         -0.5835840080       -2.8163017224       -1.5258686059
 C         -1.6019697744       -2.7215995031       -2.4540613988
 C         -2.9408961955       -2.7376404648       -2.0658561687
 C         -3.2988428054       -2.8554819169       -0.7355408356
 C         -2.2946314985       -2.9471273870        0.2179922010
 C         -2.2820717965       -3.0857954881        1.6481136264
 C         -3.2701006450       -3.1902856743        2.6171959694
 C         -2.8890395308       -3.3289098250        3.9385538841
 C         -1.5438221760       -3.3605943487        4.3025140378
 C         -0.5407398471       -3.2563021464        3.3586386398
 C         -0.9191337360       -3.1213977481        2.0300863550
 C          2.0482361287       -4.1051197075        0.8404164968
 H          4.0357682436       -4.9017589303        0.9020852572
 H          5.1216326264       -2.7475491408        1.2233345457
 H          5.6879086919       -1.0080480853        2.3106666338
 H          6.4124425647        1.1996177099        3.0571565394
 H          5.0321673860        3.1986402223        2.5844881503
 H          3.0480713219        3.0246551614        1.1721277650
 H          3.2325490603       -0.8645491999       -1.1725084428
 H          1.5841840687       -1.0665783190       -2.9672457537
 H         -0.3222042201        0.5063749953       -3.0989088368
 H          1.4219765595        4.2864638371       -1.3558508504
 H          1.0912368355        6.7287677774       -1.4734675061
 H         -1.1510692622        7.6903059050       -1.6801058478
 H         -3.1443908368        6.2334043256       -1.8069778643
 H         -4.8875010734        4.0917522234       -1.8875517307
 H         -5.9088224248        1.8407004383       -1.8868706054
 H         -4.5189299937       -0.1652500593       -1.6379789796
 H         -2.0768155448       -0.0001262186       -1.4141402086
 H          1.1137253844        2.5551576768        0.3609700765
 H          1.2589173599       -0.8426852666        1.2146828174
 H          0.4544091199       -2.8189037777       -1.8170648526
 H         -1.3587863207       -2.6385784389       -3.5031419565
 H         -3.7075726218       -2.6633875588       -2.8228756663
 H         -4.3372725325       -2.8791319600       -0.4404448193
 H         -4.3136682008       -3.1663953545        2.3415112597
 H         -3.6435299995       -3.4160255498        4.7060532440
 H         -1.2815537168       -3.4708754695        5.3442533249
 H          0.5023954748       -3.2813366453        3.6366303358
 H          1.5665724542       -5.0618174708        0.7139590329
