94
 energy: -148.315408500428 gnorm: 0.000053274235 xtb: 6.7.1 (edcfbbe)
C            6.83058006131541        1.04696711581287        0.78317031497410
C            5.62961338324936        0.75609372658382       -0.13534712422588
C            5.59140488336979        1.76153680376340       -1.29967669301027
C            5.78471558078011       -0.64173441379561       -0.70466331186324
C            6.89746570151820       -0.95206129521538       -1.47466875936494
C            7.08951906553784       -2.21160927911330       -2.01186960258905
C            6.15047904807111       -3.20009104024883       -1.77836615234033
C            5.03597516801577       -2.91989995440676       -1.01600256872674
C            4.84039651422266       -1.64627783767777       -0.47716478243215
N            3.71625157599290       -1.40168180305056        0.29681452151829
C            2.72372342982344       -2.40539043787946        0.43310135424343
C            2.67757516855046       -3.21169732739238        1.56648939143624
C            1.64077600620558       -4.11384740093587        1.74152652021275
C            0.61706925245889       -4.18418132247573        0.80928190518734
C            0.68381236412994       -3.39450281103550       -0.32144784655990
S           -0.71338162248173       -3.31136539986824       -1.44585236557215
O           -0.22988960546897       -3.00437108151568       -2.76513755446312
O           -1.54787695325222       -4.46876130697863       -1.27289029964435
C           -1.61096785419703       -1.85995948280898       -0.85572252597944
C           -2.98802661194686       -1.89750608442341       -0.84875423529921
C           -3.69766256983127       -0.75334277140079       -0.47768679398188
N           -5.09060424625886       -0.77181969749713       -0.44598093792877
C           -5.93258357230474        0.18384738182629       -0.99066707782395
C           -5.62748346178374        1.31709554412867       -1.72984972443271
C           -6.67703521237623        2.09246519111958       -2.18630937456019
C           -8.00153478682092        1.75034300662390       -1.92675178973864
C           -8.31205061025570        0.60726534027793       -1.21743151360413
C           -7.27415263014322       -0.18710394016303       -0.74916858985923
C           -7.23402592664895       -1.42556387672464       -0.02127803340595
C           -8.21810796939620       -2.25224945987108        0.50412245309517
C           -7.83126408965702       -3.38859503018205        1.18605115635774
C           -6.48383428132512       -3.69467538873799        1.35931446806562
C           -5.48678372770837       -2.88632760922289        0.84606050456499
C           -5.87037738237441       -1.75730918456539        0.13777234915482
C           -3.00676377775400        0.41271556316103       -0.15556229832735
C           -1.61483366895177        0.43799170758881       -0.17909507959877
N           -0.91003993532647        1.60343869396634        0.11482884815593
C           -1.15086517758285        2.46826591584122        1.16888216713014
C           -2.06736498925414        2.37013648682051        2.20525826526494
C           -2.06888231104093        3.36671660401583        3.16381148804283
C           -1.17743379850474        4.43454787434594        3.10489369621181
C           -0.24431048377876        4.52253500352628        2.09093748951959
C           -0.22284655794539        3.53240024205848        1.11847585677308
C            0.61865050210515        3.29137811584803       -0.02042378055836
C            1.68657090097733        3.98394921004494       -0.57379451040966
C            2.29093588038466        3.47316063049280       -1.70398927629337
C            1.82593633243277        2.30047941072035       -2.29262986384164
C            0.76010823329009        1.59768582933630       -1.76312799876524
C            0.17095289563079        2.08800612690986       -0.60707276886269
C           -0.91446550369003       -0.72103941302831       -0.51260671580398
C            1.73833723273393       -2.53061053552698       -0.53938528423908
C            3.45719522835036       -0.15409210462655        0.84906783086921
C            2.29369920431060        0.04723096090503        1.59782484216509
C            2.02807086533531        1.26705839629310        2.18333620123321
C            2.91451345653085        2.31478510301351        2.02021824582546
C            4.05599886019429        2.12319680311237        1.26511341544688
C            4.35364016614465        0.90393514391906        0.67228499091062
H            6.85104169609689        0.33160679692084        1.60324119397193
H            7.76565027245760        0.96744004217505        0.23580002917018
H            6.76520331906662        2.04703692457550        1.20250090314452
H            5.50207170357972        2.77881140474882       -0.92929366975983
H            6.49413527876512        1.69457406313729       -1.90051280179592
H            4.73447397350634        1.55327072528676       -1.93672446388999
H            7.64060030149466       -0.19239071073780       -1.66444226443994
H            7.96622652617703       -2.41828287508099       -2.60631436285164
H            6.28331745923904       -4.19027071330236       -2.18737763576075
H            4.30505398138742       -3.69307652222084       -0.83216699065001
H            3.45297134238642       -3.11382050887608        2.31146573709101
H            1.61765354874864       -4.74194224374967        2.61881402997781
H           -0.22676329503169       -4.84382854171652        0.93414790155980
H           -3.49212770174284       -2.80176449301028       -1.14822988728785
H           -4.60712019033221        1.58175646995810       -1.96178539558229
H           -6.46336359997694        2.98109989126832       -2.76143650898148
H           -8.79303739569461        2.38380703566025       -2.29806194053762
H           -9.33853405083900        0.32877187243399       -1.03378871189678
H           -9.26167120621351       -2.00497704053172        0.38226340531353
H           -8.57992109826465       -4.04766056609920        1.59934643985404
H           -6.21023851857867       -4.58305199760626        1.90867044903702
H           -4.44649840661096       -3.12895195382068        0.99993168994298
H           -3.55577315605079        1.30297221992028        0.10851970166548
H           -2.74828005314981        1.53588246673395        2.27990263852157
H           -2.77510877059038        3.31172707857126        3.97891340607789
H           -1.21249542403208        5.19438345030054        3.87113041351273
H            0.46045474656222        5.33930775671656        2.05421151366972
H            2.03029747573677        4.90459327676087       -0.12769338427983
H            3.12558648978805        3.99281464929073       -2.14987037366561
H            2.30101247062628        1.93402027436499       -3.19082568270386
H            0.39416019972290        0.70865826753944       -2.25398356753522
H            0.16135660666904       -0.71618944389929       -0.48595061375885
H            1.78696494344064       -1.96121327586062       -1.45520775787623
H            1.59446649206566       -0.76423195878442        1.73503751374112
H            1.12794445590624        1.39689696881776        2.76581424715725
H            2.71617191527837        3.27243448531444        2.47527236113731
H            4.73560402469462        2.95222408319969        1.14042039611616
