94
 energy: -148.315406806530 gnorm: 0.000050068504 xtb: 6.7.1 (edcfbbe)
C            7.17810413655435        1.15483075970070        0.67604956921764
C            5.96075488062282        0.74415847875075       -0.17231961577120
C            5.95130040633242        1.51740515873646       -1.50282774904118
C            6.05962860528512       -0.73950922698169       -0.47403829963105
C            7.15784641159529       -1.22947107227463       -1.16778577524314
C            7.29800330791145       -2.57257649105608       -1.46502094322127
C            6.31995166659958       -3.46339866024492       -1.06095924598697
C            5.21852902356706       -3.00428790790154       -0.36967615741010
C            5.07534392566492       -1.64688871148770       -0.07357422276482
N            3.96257418828261       -1.22038258888368        0.63530219253014
C            2.92508845686714       -2.13969007996187        0.93466959410524
C            2.83735323194644       -2.73104433401535        2.19140317347586
C            1.76014522867081       -3.54238890094001        2.50903615498922
C            0.73891054537382       -3.73146207246990        1.59069901221890
C            0.84646136924598       -3.15676459654134        0.33979396439479
S           -0.54020247368154       -3.21188167406867       -0.79923285098411
O           -0.03758628524247       -3.15734061418849       -2.14565804994451
O           -1.42424135909864       -4.28661899368339       -0.43973878309354
C           -1.37695566133112       -1.64471041405289       -0.47686269085155
C           -2.75431790418628       -1.62424211889498       -0.46783584627446
C           -3.41515635166815       -0.40520042452475       -0.30164559567796
N           -4.80748482499508       -0.36216108176343       -0.26695412330070
C           -5.61620867153355        0.51867325811550       -0.96615075686269
C           -5.27371682493198        1.49378961925568       -1.89112767240722
C           -6.29621594724932        2.22049849356478       -2.47211300247567
C           -7.63061377159345        1.98262544644557       -2.15346913386130
C           -7.97918279258765        0.99308211161969       -1.25597150568829
C           -6.96900726633979        0.24992625476572       -0.66034168514688
C           -6.97087566083677       -0.84505278784998        0.27039053252444
C           -7.98173378669413       -1.52830982592629        0.93314759657282
C           -7.63355815436922       -2.54526091263420        1.79948943303812
C           -6.29767221662811       -2.87139083820708        2.01929599398249
C           -5.27447396866484       -2.20440520749187        1.37189617836897
C           -5.61995729939823       -1.19958731472008        0.48054384269542
C           -2.67604730428539        0.76991763352868       -0.18505108801996
C           -1.28428603134137        0.73386781692363       -0.20800343569849
N           -0.53118857628644        1.90253658718257       -0.11691036430627
C           -0.73404631793961        2.94666438186857        0.76953032108934
C           -1.65319843604491        3.06914623864089        1.80096578792638
C           -1.61275055629082        4.21728642448775        2.57048060064177
C           -0.67741985912372        5.22062909630996        2.33209876087801
C            0.25869367093940        5.09091414894508        1.32541228213188
C            0.23824194357121        3.94597292292560        0.54106835891550
C            1.06786597766538        3.47555763924274       -0.53304677396558
C            2.16406698198575        4.01583748719724       -1.19092553015719
C            2.74422896723266        3.29228010183129       -2.21237218167127
C            2.22797910119464        2.05674836211631       -2.59295870873797
C            1.13398165661355        1.50180062102896       -1.95619538705051
C            0.56845107762282        2.20881831066376       -0.90531937924922
C           -0.63318699587266       -0.49314886150922       -0.33318103740607
C            1.93959811805841       -2.39104960435764       -0.01294589641971
C            3.75684825331621        0.11591491585063        0.95248421564730
C            2.60455913692049        0.49652308925967        1.64692812709519
C            2.39199460107695        1.81148040725837        2.00340118909824
C            3.32130190866352        2.77506111752582        1.65982390488549
C            4.45133919817143        2.40398329986049        0.95611884788137
C            4.69614707385768        1.08686090025958        0.59292800918038
H            7.17832706859045        0.60332060832925        1.61438114398746
H            8.10568724004487        0.94078520092599        0.15258960792784
H            7.15274344450157        2.21694419560508        0.90288163108067
H            5.90009006670573        2.58818396200802       -1.32714182561673
H            6.84746042155029        1.30761477789863       -2.08020206471159
H            5.08369221682742        1.22579411859028       -2.09086884667833
H            7.93054973626645       -0.54749366094977       -1.48901565225046
H            8.16475242860149       -2.91920924583923       -2.00657706152892
H            6.41201902348149       -4.51610993160454       -1.28166913224042
H            4.45690880901512       -3.70091401415816       -0.05266523629569
H            3.61282488882232       -2.53741913188065        2.91733035284488
H            1.70451964964155       -4.00457037289218        3.48268198126673
H           -0.13414215090411       -4.32184601731315        1.81877459611560
H           -3.29609474698350       -2.54527155425660       -0.60803946179103
H           -4.24594577549465        1.67272641997448       -2.16801124618258
H           -6.05325894033696        2.98676514925952       -3.19316044837909
H           -8.40004684230214        2.57396347741898       -2.62667561492150
H           -9.01402732383093        0.79265314486711       -1.02383697746439
H           -9.01583179962664       -1.26338279458100        0.77352882729616
H           -8.40363943946846       -3.09256825988243        2.32208093698498
H           -6.05405082591101       -3.66251773772699        2.71257671887060
H           -4.24317671695710       -2.45892364470712        1.56263877533767
H           -3.18734993752758        1.71407676709923       -0.08106445488406
H           -2.36837259697045        2.28969633184364        2.01578285334587
H           -2.32065399242329        4.33505015167169        3.37743299811948
H           -0.68080479702955        6.10386631760790        2.95303968227715
H            0.99724440942351        5.85870171423772        1.15163538301937
H            2.54795395556920        4.98402173135526       -0.90809220078955
H            3.59997867638562        3.69086276457933       -2.73611662524315
H            2.68500713050615        1.52121903771026       -3.41214587660063
H            0.72936245876847        0.55785928667505       -2.28858177436182
H            0.44200212857017       -0.52823528701039       -0.30339436291273
H            2.01801767095207       -1.99413857342513       -1.01376084686531
H            1.87193037322876       -0.24729526151765        1.92301831615893
H            1.49958347445427        2.08107583617372        2.54864485698386
H            3.16470562768073        3.80610373977958        1.93537111163692
H            5.16407548130010        3.16840063434880        0.68709436076287
