94
 energy: -148.215674389859 gnorm: 0.000101659277 xtb: 6.7.1 (edcfbbe)
C            7.04968937206648        1.22643826975795        0.70349411722225
C            5.81592987414260        0.76076105689813       -0.09298311307742
C            5.75711715842499        1.47921841754117       -1.45475175402982
C            5.92976144282167       -0.72894503547342       -0.33571001134511
C            7.03889275132256       -1.24266393829201       -0.99333498256953
C            7.18478962859458       -2.59705662818894       -1.23138601244068
C            6.20355497680265       -3.47919056078707       -0.80208820050564
C            5.08794878017359       -2.99905556774741       -0.15605078466072
C            4.93097627509209       -1.62506084612911        0.07568251326489
N            3.79810164504012       -1.17802125181164        0.71789680217916
C            2.70881312855849       -2.07828730900436        0.90867870126465
C            2.43567808702660       -2.63015843657141        2.16333758583660
C            1.30876532146044       -3.44699270259225        2.31421606361955
C            0.45853258521873       -3.67496355382099        1.25770305451373
C            0.75473815159690       -3.13422064901499        0.00405662246838
S           -0.43038980265438       -3.09537244995333       -1.30786961416109
O            0.28393310892693       -2.94876454061894       -2.55424919977306
O           -1.36929550329535       -4.18164924380540       -1.18108170059740
C           -1.27823903207190       -1.57387805448061       -0.95675174356465
C           -2.65279783681804       -1.58331644561881       -0.71299056127516
C           -3.29507864557655       -0.39839177184514       -0.39198075704146
N           -4.68018778711870       -0.39903401740172       -0.19114097559728
C           -5.58999791474001        0.44982564511087       -0.78665237695300
C           -5.38113585970986        1.46195699306013       -1.71294500325139
C           -6.48703770378707        2.15534147838985       -2.17257985787422
C           -7.77128718966025        1.84791994056330       -1.73086440433739
C           -7.98904861070657        0.82398117015845       -0.82618164322061
C           -6.89596327098868        0.11294766752068       -0.35271699499052
C           -6.75293421317589       -0.99971529719891        0.54514222738392
C           -7.65265764809627       -1.75321559434141        1.28538653118496
C           -7.16266455708861       -2.77190010353457        2.08319794345517
C           -5.79660275099836       -3.03187914511043        2.15992986214725
C           -4.87993404699929       -2.29344363566692        1.43236763645200
C           -5.36782598077496       -1.28734604969918        0.61013811861983
C           -2.57859497433837        0.80456478728164       -0.30245606729977
C           -1.18584490799544        0.79104663131997       -0.50157324794497
N           -0.43690562861637        1.96020357726321       -0.35687006440905
C           -0.58519984813013        2.90201295938827        0.64475726211913
C           -1.43951643794255        2.91209080934814        1.73699838975254
C           -1.35991610417492        3.98035134674502        2.61722366457310
C           -0.44780946514792        5.01448036192455        2.42107907656737
C            0.43073400689348        4.99559009357533        1.35421268251392
C            0.37782896895334        3.92804767671284        0.46520980430842
C            1.15472515935069        3.56502178395081       -0.68079317696355
C            2.23900192136712        4.15277537015959       -1.32173655845004
C            2.76452752294231        3.53081181134080       -2.43805519241844
C            2.20513760474975        2.35586388547132       -2.93434517656694
C            1.12173267729538        1.75306564666173       -2.31421684900349
C            0.61954798995240        2.34436750799697       -1.16458786663434
C           -0.54462232418009       -0.39567328211600       -0.81605957337428
C            1.89627675700984       -2.34820877094733       -0.17173186357225
C            3.60828375655987        0.15171593994115        1.03210610783815
C            2.44672410350644        0.54427719260590        1.71392858701067
C            2.25449856761514        1.85588208920772        2.08137518512583
C            3.20181178655309        2.81133363144406        1.74688633987616
C            4.33031827301361        2.43594391670038        1.04340110163072
C            4.56547371592061        1.11635375783666        0.68237185687808
H            7.08296519783234        0.71868257661119        1.66542962630674
H            7.96571797029601        1.00256627282083        0.16510141711141
H            7.01579152049570        2.29704881695059        0.88102601128817
H            5.69973527025831        2.55527535857532       -1.31805751222882
H            6.63778782342580        1.25190658738907       -2.04891980330410
H            4.87444353205692        1.15946316477744       -2.00490871868693
H            7.81269599987158       -0.57249787918444       -1.33504482750716
H            8.05943518790370       -2.96287961482541       -1.74655112649967
H            6.30939497698450       -4.53900386752010       -0.97414376473707
H            4.32092568480996       -3.67953151304620        0.17810802458782
H            3.08662067412005       -2.42122450564287        2.99711833358435
H            1.10430125101357       -3.88462373227476        3.27965546236413
H           -0.43008151808483       -4.27717782756106        1.35899498348246
H           -3.19291284643283       -2.50720911795405       -0.83782831604955
H           -4.39228574174014        1.69048769188461       -2.07887228037372
H           -6.35081856147735        2.94763033125401       -2.89316696959438
H           -8.60939721846747        2.41251627110618       -2.11118011790347
H           -8.98721005331827        0.57675486476444       -0.49835881959623
H           -8.71068787388931       -1.54493919178840        1.23905958408204
H           -7.84736016735360       -3.37230778900018        2.66333000312053
H           -5.44453622842225       -3.82523770709693        2.80165227093178
H           -3.82210068226859       -2.49319028112854        1.50462538196433
H           -3.09181436225754        1.72679534072726       -0.09017309670676
H           -2.13214755225541        2.10533195962022        1.91866087636332
H           -2.01718848546373        4.00780199089745        3.47312790028775
H           -0.42164132043235        5.83485244767240        3.12294961924239
H            1.14821474991660        5.78964715994786        1.21232528163145
H            2.65505369471784        5.07820289331170       -0.95363409704672
H            3.60971942813663        3.96862808672358       -2.94856762178853
H            2.61562790721295        1.90812199369048       -3.82687401058382
H            0.68197897964233        0.86087609618682       -2.73184955219628
H            0.52655646195658       -0.42269128996344       -0.91296929073900
H            2.12949306155233       -1.97490590634232       -1.15655375135137
H            1.70122218245619       -0.19437269376445        1.96148057024632
H            1.36541201222074        2.13756728012643        2.62373022995328
H            3.05482719286405        3.84185976650555        2.02791570928570
H            5.04610436476318        3.19620408205097        0.77238402341101
