94
 energy: -148.219997072919 gnorm: 0.000156691034 xtb: 6.7.1 (edcfbbe)
C            5.57330930938957        0.39213867817083        3.17776587782442
C            5.14040730955708        0.50561805213668        1.70213649794919
C            5.89677504168119        1.66184941165037        1.02214671383429
C            5.49466175578273       -0.78365343233281        0.99211527789236
C            6.82270587679414       -1.17471314764399        0.89153917842034
C            7.19508951394693       -2.33526569046043        0.23812166836990
C            6.22380637907799       -3.13526782892612       -0.34522580229656
C            4.89846168300064       -2.77500161820878       -0.26016603731144
C            4.51567157274287       -1.60699774152097        0.41467313652318
N            3.17991139109983       -1.28465827080778        0.50001822220512
C            2.21518152081056       -2.13251907878646       -0.11837020217459
C            1.75302144379713       -3.26956263160826        0.55823994528568
C            0.77502857153573       -4.06298589890981       -0.04339929678615
C            0.24621696868661       -3.72088480352396       -1.26595709880026
C            0.72610898047245       -2.59005200966263       -1.94035705237170
S           -0.20489456302571       -1.90615527598813       -3.28570442992360
O            0.66575058447470       -1.14533228709545       -4.14787743932158
O           -1.02659883551186       -2.93757818350779       -3.86556721243926
C           -1.18272127090888       -0.79362765553342       -2.32213320482536
C           -2.18071597112435       -1.31953379009965       -1.49178641272218
C           -2.71627036396479       -0.53131518326772       -0.49412575468334
N           -3.71706312651048       -1.04921404862286        0.34195402686400
C           -4.95084133992949       -0.48527708075513        0.57957724152200
C           -5.50671883903863        0.67140695382514        0.05270530626178
C           -6.79059536401139        1.00731769476131        0.44079723933758
C           -7.51127145540862        0.20846916388108        1.32523550001794
C           -6.97247284502476       -0.95963991634682        1.83495934031947
C           -5.68580379376928       -1.31680299402526        1.45967545972796
C           -4.83901179399465       -2.43961980443567        1.75766424153728
C           -4.98828255476552       -3.57015247950878        2.54747638646004
C           -3.93763126624964       -4.46740204895930        2.62276350893607
C           -2.74704891730571       -4.24103909096713        1.93614524071641
C           -2.57379849200377       -3.12254817620080        1.14125899780000
C           -3.63431152216575       -2.23276907187737        1.04218593690579
C           -2.25303686954193        0.77919852259351       -0.28250593748777
C           -1.25317225896170        1.30009854635331       -1.12737749135521
N           -0.77446969705427        2.59562638923244       -0.90336857533122
C            0.55618747094323        2.97047038174632       -0.87581355410271
C            1.69759012927140        2.22948223870268       -1.14240721893210
C            2.92454790419400        2.85647147187953       -1.02428044441564
C            3.02612420702492        4.18837597235844       -0.63367529166325
C            1.89571079287948        4.93134477071751       -0.34904204544526
C            0.65286916360332        4.32482897052146       -0.47161498079083
C           -0.68955369494901        4.78848455482609       -0.26849006047152
C           -1.23012469982304        6.01420259344331        0.09555165242950
C           -2.60630574110822        6.14032841370461        0.15503018077923
C           -3.43771968603698        5.06995955891945       -0.16258012745951
C           -2.91913357596869        3.83882376394069       -0.52606526749315
C           -1.54007879363569        3.69235414499847       -0.55403877011735
C           -0.72961087657542        0.51988424986930       -2.14144539213399
C            1.72218761373033       -1.80161668434055       -1.36200386004618
C            2.73960088264862       -0.13717084449727        1.12413415440239
C            1.36287149240888        0.11471038981878        1.21621690888814
C            0.89620746069708        1.26616621974396        1.80769228471744
C            1.79230564677253        2.19327332938443        2.31692986355758
C            3.14858995979517        1.93494805845779        2.25448817057994
C            3.65072430041560        0.77697698674880        1.67620891100937
H            5.01986454481071       -0.40662131991495        3.66760369338300
H            6.63419224657006        0.17041589474032        3.25252687776958
H            5.37765275301933        1.32044497899593        3.70685656402873
H            5.58357640656077        2.62109536496677        1.42257914432389
H            6.96775044596553        1.56303138316948        1.17407865430268
H            5.70176256590274        1.65624884111365       -0.04755174090529
H            7.59284364070720       -0.56002912159172        1.33126138838326
H            8.23672618819782       -2.61040150241447        0.17887678741817
H            6.50141608961564       -4.03788518686823       -0.86714079185246
H            4.14082234612089       -3.39062378000391       -0.71798304723708
H            2.15160902213100       -3.51359069499633        1.52979720446848
H            0.42557991777046       -4.94674172612747        0.46931788693099
H           -0.52362062344622       -4.30805155831150       -1.73987627030774
H           -2.53646690830374       -2.32068413400582       -1.67228725846846
H           -4.96037358863590        1.27611672336307       -0.65382423183114
H           -7.24595720735651        1.90282844909928        0.04536444278395
H           -8.51129917126340        0.50280660819357        1.60637208508757
H           -7.54153543638150       -1.58521452220994        2.50567058051831
H           -5.90451969116147       -3.74245841393439        3.09138919325478
H           -4.03645722002905       -5.35522391722462        3.22931412308056
H           -1.94047646502497       -4.95248016965298        2.02849104456904
H           -1.64596850095553       -2.94853204548851        0.61731142956298
H           -2.62377201505320        1.35136154789400        0.55172203021341
H            1.63821580627946        1.19315310571885       -1.42739375518984
H            3.82060839446027        2.29819746288160       -1.24716822183872
H            4.00200155765595        4.64375060289765       -0.55341308111539
H            1.97200902214988        5.96309085953707       -0.04117900836629
H           -0.58646584391309        6.85150072219051        0.31826659748391
H           -3.04587384052065        7.08549199204221        0.43649991607220
H           -4.50859032144556        5.20281268468705       -0.13229542283909
H           -3.57305473957934        3.02730980286520       -0.80065317761321
H           -0.00875951370581        0.90547447344475       -2.84272996830449
H            2.08974103941970       -0.94455227226782       -1.90334105127242
H            0.66265386291476       -0.60076501661516        0.81491750655363
H           -0.16655727855601        1.44064479511046        1.87182951327507
H            1.43623151979687        3.10669509013173        2.76710030232370
H            3.82990758003304        2.65703867793040        2.67716619653665
