  85
       -139.14043068
 C         -8.7132275635        0.0868078669       -1.2285709563
 C         -7.8159037887        0.0320998080        0.0109226405
 C         -8.6606875520       -0.0194027254        1.2880803449
 C         -6.8883172175       -1.1834779506       -0.0546217891
 O         -7.2361281417       -2.3360305155       -0.1139434713
 C         -5.5041531355       -0.6738529609       -0.0302417012
 C         -4.3162084263       -1.3805458447       -0.0533155281
 C         -3.1083293426       -0.6868838085       -0.0152904378
 C         -1.8462995570       -1.4449336114       -0.0111488768
 C         -0.8447723857       -1.1681574997        0.9188996801
 C          0.3626879494       -1.8313889044        0.8660378174
 C          0.5950184193       -2.7876148751       -0.1191559055
 N          1.8609235047       -3.4034869561       -0.2076119862
 C          2.9727996801       -2.6445575037       -0.5798932749
 C          2.8599757929       -1.3224208117       -0.9889328033
 C          3.9832420603       -0.5947705431       -1.3511980627
 C          5.2322097235       -1.1791817836       -1.3171324925
 C          5.3569061170       -2.5093759639       -0.9429982223
 C          4.2398956454       -3.2415033096       -0.5871060747
 O          4.4309467555       -4.5615028078       -0.2603322824
 C          3.3140023752       -5.3167320111        0.0038112043
 C          3.5090504656       -6.6624143444        0.2501507388
 C          2.4322141006       -7.4813807082        0.5589642812
 C          1.1645919790       -6.9414097275        0.6318201923
 C          0.9619317591       -5.5924415650        0.3810545091
 C          2.0259399876       -4.7656192724        0.0462250893
 C         -0.4173276137       -3.1054992277       -1.0180073454
 C         -1.6279170692       -2.4430035822       -0.9576297951
 C         -3.1035204784        0.7225365772        0.0260952297
 C         -1.8353425559        1.4706308617        0.0270139661
 C         -1.6161283128        2.4749091308        0.9666494417
 C         -0.4005530894        3.1285577624        1.0304437275
 C          0.6161130443        2.7921879781        0.1441050887
 N          1.8882598671        3.3975069306        0.2372530416
 C          2.0831077535        4.7351281912       -0.1061093032
 C          1.0355387599        5.5628333997       -0.4865839544
 C          1.2679325750        6.8870308916       -0.8275441709
 C          2.5485332244        7.3998111366       -0.7990273367
 C          3.6082178970        6.5788149178       -0.4397624249
 C          3.3835991334        5.2578054847       -0.1024856122
 O          4.4835525761        4.4960936070        0.2118021277
 C          4.2626871113        3.2056350421        0.6269526323
 C          5.3616474764        2.4720993052        1.0321203971
 C          5.2051016881        1.1713497957        1.4895360174
 C          3.9432479562        0.6180779765        1.5551761868
 C          2.8373325838        1.3474378998        1.1456582417
 C          2.9821692330        2.6387193671        0.6563636901
 C          0.3844082604        1.8296714604       -0.8344962137
 C         -0.8290679825        1.1779017593       -0.8930585853
 C         -4.3070942961        1.4238620155        0.0577786620
 C         -5.4996034777        0.7245401259        0.0301165292
 C         -6.8805043521        1.2430347391        0.0491630840
 O         -7.2212425869        2.3984977664        0.0891985879
 H         -9.3411932895       -0.8001544836       -1.2661760853
 H         -9.3421661968        0.9728732809       -1.1877640599
 H         -8.1110189725        0.1274010623       -2.1348746419
 H         -9.2852932308        0.8685377428        1.3505550755
 H         -9.2924038569       -0.9044230114        1.2746705550
 H         -8.0211506963       -0.0597827550        2.1685155558
 H         -4.3276323307       -2.4599251902       -0.0787094363
 H         -1.0204997044       -0.4342366800        1.6910910294
 H          1.1417792075       -1.6092462196        1.5798723084
 H          1.8858416667       -0.8599564328       -1.0213920012
 H          3.8734162851        0.4341456511       -1.6567066390
 H          6.1093556344       -0.6131561484       -1.5870154109
 H          6.3166942461       -3.0004079673       -0.9250368628
 H          4.5140578638       -7.0502455635        0.2035117181
 H          2.5947573188       -8.5304178587        0.7491022380
 H          0.3200418232       -7.5626342961        0.8875178954
 H         -0.0310718762       -5.1772304090        0.4564071196
 H         -0.2425887533       -3.8567132979       -1.7737802891
 H         -2.3988579705       -2.6704029950       -1.6792653925
 H         -2.3912169494        2.7157053616        1.6794186431
 H         -0.2254115566        3.8867444848        1.7792035445
 H          0.0327530873        5.1664635699       -0.5260965792
 H          0.4363646807        7.5102373030       -1.1184593558
 H          2.7342111131        8.4293163441       -1.0612716947
 H          4.6221381828        6.9453215349       -0.4234800067
 H          6.3330233278        2.9377768178        0.9848656784
 H          6.0687200403        0.6041909988        1.7978667237
 H          3.8096463955       -0.3872882041        1.9234059458
 H          1.8518141511        0.9117616201        1.2024828062
 H          1.1680822574        1.5934900351       -1.5388840155
 H         -1.0050653047        0.4401679694       -1.6614731023
 H         -4.3128775711        2.5033197244        0.0812708149
