  32
  -55.3477561000000        1.00000000000000      !
 C          4.9863413191       -0.7043109320       -0.0019649830
 C          4.9863796826        0.7043995666        0.0018424897
 C          3.8149327536        1.4054583103        0.0034747429
 C          2.5841078350        0.7143924939        0.0009032296
 N          1.4320888918        1.4002529067        0.0009576288
 C          0.3050125568        0.7154019267       -0.0002276131
 C         -0.9519865354        1.4302766082       -0.0009170540
 C         -0.9957292860        2.8281246637        0.0000667189
 C         -2.2205650865        3.4581070650        0.0014212001
 C         -3.3691936132        2.6651519340        0.0002393189
 N         -3.3488623890        1.3533950690       -0.0016897852
 C         -2.1728907095        0.7272387568       -0.0016603084
 C         -2.1727492228       -0.7276677705       -0.0017035249
 N         -3.3484272814       -1.3543915970       -0.0028229234
 C         -3.3679713989       -2.6661477992       -0.0003376901
 C         -2.2189613347       -3.4585495019        0.0043803423
 C         -0.9944254573       -2.8280232030        0.0043581309
 C         -0.9515707135       -1.4301585158        0.0006143202
 C          0.3050818973       -0.7147375424       -0.0003388604
 N          1.4322115232       -1.3994965141       -0.0017650535
 C          2.5841405946       -0.7135523930       -0.0017914540
 C          3.8147602483       -1.4050393847       -0.0040038848
 H          5.9309790412       -1.2280402130       -0.0036423062
 H          5.9311379593        1.2279092265        0.0044591487
 H          3.7935283004        2.4841961975        0.0067523333
 H         -0.0658598884        3.3762637050        0.0034897408
 H         -2.2966997649        4.5344653256        0.0035816366
 H         -4.3539417946        3.1147747961        0.0007805620
 H         -4.3524361231       -3.1163862575       -0.0013559160
 H         -2.2945258805       -4.5348990073        0.0082533769
 H         -0.0641645116       -3.3755378721        0.0068171229
 H          3.7925903077       -2.4837497283       -0.0071013440
