  108
       -171.68711308
 O         -0.0234079131       -4.6814550091       -0.0484064983
 C         -0.0033463289       -3.4158154630       -0.0486087023
 C         -1.2503720539       -2.6742828258       -0.0338122851
 C         -1.3904376411       -1.3734350616       -0.5529579191
 C         -2.6112722239       -0.7426556104       -0.5499776380
 C         -3.7395850289       -1.3896604198       -0.0430754103
 N         -4.9981455452       -0.7291961987       -0.0370023073
 C         -5.2367592938        0.2514067131        0.9029306275
 C         -4.2483945995        0.5883564239        1.8372427705
 C         -4.4718993800        1.5735776368        2.7740721606
 C         -5.6859772287        2.2435786140        2.8108841615
 C         -6.6744404680        1.9021878145        1.9063823723
 C         -6.4688681817        0.9150794512        0.9561569559
 C         -7.6054774799        0.5728987303        0.0178185323
 C         -8.7301196525        0.0075906516        0.8658751292
 C         -8.4109888755       -1.0752598783        1.6819704466
 C         -9.3553436101       -1.6828799565        2.4842536939
 C        -10.6596881929       -1.2123351374        2.4871383481
 C        -10.9972354373       -0.1435498125        1.6855117137
 C        -10.0393838946        0.4643813061        0.8756913505
 S        -10.6233029303        1.8089810919       -0.1050197402
 C         -9.1686694663        2.4151438947       -0.8963836771
 C         -9.3433424348        3.5582489484       -1.6747394521
 C         -8.2788140753        4.1144658481       -2.3501667606
 C         -7.0259316292        3.5283595904       -2.2518928907
 C         -6.8589878529        2.3980820802       -1.4778740545
 C         -7.9205889420        1.8212585413       -0.7847043862
 C         -7.2183434912       -0.5024587927       -0.9752550872
 C         -8.1529162189       -0.8992041190       -1.9180171645
 C         -7.8542683685       -1.8657228638       -2.8605284780
 C         -6.5912272996       -2.4392035360       -2.8682968596
 C         -5.6485400233       -2.0588049624       -1.9384956849
 C         -5.9491372081       -1.0941611445       -0.9675480101
 C         -3.6284584143       -2.6992212609        0.4311218849
 C         -2.4128317100       -3.3320154724        0.4222796211
 C          1.2675379245       -2.7152877280       -0.0637706614
 C          2.4070983356       -3.4079193506       -0.5256033618
 C          3.6427403396       -2.8144903691       -0.5347216846
 C          3.7965043245       -1.5117985102       -0.0540952011
 N          5.0709032006       -0.8823939156       -0.0536947153
 C          6.0071968978       -1.2585718381        0.8870442662
 C          5.7135323741       -2.2707592923        1.8103475108
 C          6.6464766763       -2.6612952728        2.7460976356
 C          7.8912848246       -2.0508719606        2.7925601454
 C          8.1811702943       -1.0365811830        1.8986623066
 C          7.2571582457       -0.6298237053        0.9497739423
 C          7.6277149382        0.5131726211        0.0296570696
 C          8.8585423997        0.0893968286       -0.7488970182
 C          8.7619177200       -1.1042609165       -1.4602346253
 C          9.8116887672       -1.5861568805       -2.2154432800
 C         10.9990336557       -0.8723458219       -2.2755732656
 C         11.1149056473        0.3123744553       -1.5814340634
 C         10.0500568262        0.7947633226       -0.8222857998
 S         10.3386184529        2.3298280186       -0.0031395879
 C          8.8746916221        2.5809083354        0.9472456813
 C          8.8866622803        3.7011755184        1.7766046376
 C          7.7929127144        4.0063520204        2.5571621119
 C          6.6732508148        3.1896775774        2.5124542523
 C          6.6683385843        2.0804828547        1.6913497048
 C          7.7643410717        1.7516748768        0.8969508169
 C          6.5405751694        0.8019031476       -0.9835708803
 C          6.7625332924        1.7879205690       -1.9312524523
 C          5.8118144426        2.0884032811       -2.8891402622
 C          4.6189550112        1.3806132462       -2.9075370393
 C          4.3788692884        0.3979647738       -1.9723745397
 C          5.3289549195        0.0999837344       -0.9865160351
 C          2.6900987601       -0.8303398030        0.4558770525
 C          1.4497332261       -1.4215010206        0.4592979816
 H         -0.5414714772       -0.8810004264       -0.9987418171
 H         -2.7128681725        0.2548513362       -0.9548355005
 H         -3.3072031601        0.0636592808        1.8200946221
 H         -3.6950534460        1.8187730899        3.4822925507
 H         -5.8622753409        3.0170138549        3.5416572910
 H         -7.6294379954        2.4062302596        1.9338563382
 H         -7.3959517986       -1.4426861709        1.6795400590
 H         -9.0762224496       -2.5209146129        3.1042475550
 H        -11.4085986457       -1.6769351789        3.1096123366
 H        -12.0067065664        0.2391254694        1.6693795057
 H        -10.3284764447        3.9954507020       -1.7380708273
 H         -8.4244453156        4.9988532963       -2.9508877162
 H         -6.1832634657        3.9506456347       -2.7775263099
 H         -5.8842932108        1.9396799770       -1.4023517237
 H         -9.1295568589       -0.4388015012       -1.9104007472
 H         -8.5952351581       -2.1639395543       -3.5853643982
 H         -6.3382156921       -3.1859312561       -3.6053343461
 H         -4.6661848592       -2.5014043504       -1.9553471265
 H         -4.5095288622       -3.2029622585        0.8021812210
 H         -2.3091799388       -4.3451574484        0.7774604933
 H          2.2700935841       -4.4154473155       -0.8855714581
 H          4.5056581448       -3.3439071969       -0.9125757706
 H          4.7450785599       -2.7426507984        1.7860493209
 H          6.3996128993       -3.4450543586        3.4457785712
 H          8.6235035148       -2.3559783475        3.5233731661
 H          9.1412380361       -0.5427764654        1.9345379727
 H          7.8361839743       -1.6582420377       -1.4138206991
 H          9.7051025819       -2.5140559453       -2.7556002014
 H         11.8289406841       -1.2374488070       -2.8603827683
 H         12.0288594289        0.8862484364       -1.6142571698
 H          9.7692047505        4.3229101984        1.7933792938
 H          7.8124920510        4.8751196815        3.1967455628
 H          5.8078736727        3.4165686708        3.1161558407
 H          5.7964321988        1.4451630018        1.6580841254
 H          7.6986570580        2.3257516042       -1.9152562479
 H          6.0010573196        2.8608095419       -3.6178158110
 H          3.8726082157        1.5939444390       -3.6576264074
 H          3.4550067796       -0.1566346639       -1.9964305664
 H          2.8241695189        0.1629513130        0.8617387935
 H          0.6176653049       -0.9036051141        0.9080122973
