108
 energy: -171.756490895889 gnorm: 0.000066815671 xtb: 6.7.1 (edcfbbe)
O           -0.00113910953747       -4.66755393181516       -0.16629780840314
C            0.00522648239431       -3.39300687142215       -0.12355641517490
C           -1.25114976005480       -2.66987705995335       -0.08789330259056
C           -1.40865401187736       -1.36040302574086       -0.58214085677811
C           -2.63623443192242       -0.74244956802842       -0.56706392821904
C           -3.75743141547145       -1.40942626923659       -0.06907669662080
N           -5.02406504732259       -0.75817997337071       -0.04602073118437
C           -5.27175868078080        0.19270898437215        0.92551555635512
C           -4.29218127515590        0.49746209021005        1.88093301491541
C           -4.52324599934988        1.45095460686137        2.84825443191738
C           -5.73677363770392        2.12224528654842        2.89432655471636
C           -6.71631710370898        1.81388345408289        1.96847579282916
C           -6.50427793393264        0.85723523133171        0.98768178013279
C           -7.63401542900067        0.54872490564941        0.02689928979851
C           -8.78095665194337       -0.01238874062587        0.85174014688365
C           -8.49460331724587       -1.11778158087096        1.65064280843505
C           -9.45881879502481       -1.71948608711946        2.43390280984452
C          -10.75292142489319       -1.22072964664927        2.43518927171927
C          -11.05962754150917       -0.13047712812509        1.65011683957583
C          -10.08127271627475        0.47157043302392        0.85971789350636
S          -10.63021675015994        1.84616274610725       -0.09993532906473
C           -9.15911157630176        2.43136325613377       -0.87823909998997
C           -9.31115369069893        3.58336875841409       -1.64913110579809
C           -8.23365014419390        4.13013160770158       -2.31176903115360
C           -6.98984340425924        3.52566204388555       -2.20665764049220
C           -6.84583029400153        2.38632178579473       -1.44092542664026
C           -7.92101658212483        1.81598204980103       -0.76217347660314
C           -7.24637992124756       -0.51472184883415       -0.98157175882425
C           -8.18090943432639       -0.89784541635044       -1.93119640048898
C           -7.88010574053807       -1.84310823980440       -2.89434773563302
C           -6.61338268317957       -2.40888384170429       -2.91860296017000
C           -5.67115211763734       -2.04440777016347       -1.98189389554475
C           -5.97423414790757       -1.10344351695851       -0.98767803414609
C           -3.63054303084398       -2.72516569933702        0.38406267153200
C           -2.40685114537821       -3.34419328656434        0.36125891337734
C            1.26881202854559       -2.68144593406143       -0.11067428430138
C            2.41764290725674       -3.33482204403427       -0.60571496951897
C            3.64807023029611       -2.72883945311785       -0.58552709889286
C            3.78801105269936       -1.44926595670398       -0.04234657847514
N            5.06050704402578       -0.80892597738895       -0.01620692488651
C            5.99372052406003       -1.20610647347028        0.92166335047869
C            5.68066673794939       -2.21146366531522        1.84720997685605
C            6.60795768992412       -2.62510801864010        2.77854435638641
C            7.86785764315321       -2.04499495543403        2.81818104403082
C            8.17784940165961       -1.03761280344042        1.92312419751887
C            7.25946250615756       -0.60629638479422        0.97848121108449
C            7.65849739134528        0.52134000684386        0.04907447360704
C            8.84107118819677        0.03752294930640       -0.77434905513118
C            8.67279659227359       -1.15931284388660       -1.46807012735352
C            9.67080593564289       -1.68682600289844       -2.26250898059057
C           10.87935281918153       -1.01724530556573       -2.38318333426077
C           11.06696465968530        0.16954769598605       -1.70830134481476
C           10.05381273007188        0.69797673874959       -0.90930788848696
S           10.43580960869684        2.23091360707068       -0.12455949008311
C            9.03193838088532        2.54109901402472        0.89772807880424
C            9.12977610333582        3.66524068411177        1.71688524907259
C            8.09187618591018        4.01503480327821        2.55320267920949
C            6.94323260700022        3.23821755528450        2.57572308954237
C            6.85302608831599        2.12617809153434        1.76291986320230
C            7.89039946219273        1.75244668065063        0.91069155317303
C            6.55398779477791        0.86674431277372       -0.93029769352662
C            6.78072276541824        1.87249852637533       -1.85723752215495
C            5.82066781882597        2.21999003339217       -2.78954370826405
C            4.61113693569449        1.54032611290402       -2.80492816802520
C            4.36554882065867        0.53854077135683       -1.89170224048942
C            5.32570062132176        0.19168385290952       -0.93093843494350
C            2.67330591518625       -0.80579311856204        0.49884943753869
C            1.43921220882112       -1.41029802302043        0.47122792796515
H           -0.56416570410436       -0.84903813452001       -1.01852907406586
H           -2.74537600677703        0.26038328258470       -0.95528217509745
H           -3.35073673248934       -0.02821690456603        1.85750545192798
H           -3.75301280907510        1.66970879020903        3.57234697305721
H           -5.91990374517871        2.87110223331098        3.64908299067336
H           -7.66999601319475        2.32038256012481        2.00379674466816
H           -7.48802575866991       -1.50947125785541        1.65205181488520
H           -9.20253988727887       -2.57462578210523        3.04056106498073
H          -11.51733873323389       -1.67956111472675        3.04346715735859
H          -12.06061698833751        0.27452425816148        1.63276249851852
H          -10.28950571881041        4.03562653599225       -1.71665106583909
H           -8.36237950576826        5.02112866266533       -2.90711506948434
H           -6.13613707607739        3.94017009963968       -2.72070621897942
H           -5.87662453096414        1.91623938857334       -1.36290103832555
H           -9.16034826142293       -0.44262906590312       -1.91394248743704
H           -8.62200835445972       -2.13003888100246       -3.62315333899567
H           -6.35736211711426       -3.13694689535866       -3.67343644629330
H           -4.68623593933213       -2.48331111032788       -2.01197756899466
H           -4.50203535437888       -3.24768270577698        0.75200556543334
H           -2.29254817434771       -4.36350225705853        0.70119873905990
H            2.29283097095367       -4.32667942055471       -1.01591334625415
H            4.51391159054321       -3.23391805123875       -0.98933341706823
H            4.70062201808023       -2.66169790370836        1.82776466888212
H            6.34518492926516       -3.40372432512151        3.47859653289278
H            8.59713956058781       -2.36944615038514        3.54396256282390
H            9.15127397420846       -0.56979660151046        1.95421029177088
H            7.73195505769909       -1.68218433725247       -1.37806290508427
H            9.50669030911054       -2.61582177786704       -2.78690911306852
H           11.66943654825012       -1.41764893475624       -2.99984030194489
H           11.99826457943788        0.71049028789131       -1.78830349312691
H           10.03400738760670        4.25461828636778        1.68065112294009
H            8.17711128174101        4.88753429851881        3.18277596255960
H            6.12050786508200        3.49921190880477        3.22375619298235
H            5.95641815895396        1.52436663687451        1.78283132486137
H            7.72906394151013        2.38931636657493       -1.84654476627469
H            6.01586079817425        3.00707092599321       -3.50114876962263
H            3.85589317356990        1.79075458053531       -3.53450218234609
H            3.42719171454146        0.00721223449293       -1.91479595015461
H            2.79278692262968        0.16777324061296        0.95308964799327
H            0.59969490775275       -0.92017638186940        0.94032998926329
