53
 energy: -86.256154324517 gnorm: 0.000073822068 xtb: 6.7.1 (edcfbbe)
O            3.80638644937929        2.21645716474030       -0.84824760360767
C            4.31218537953704        1.13770299967543       -0.40383741199195
C            5.74795807360402        0.97792535989226       -0.37416804959352
C            6.54364982845188        2.02999358591329       -0.86844654335635
C            7.91817816335094        1.95461513358197       -0.87376605985936
C            8.56355542187492        0.82124221971442       -0.39400935867699
C            7.80581878979021       -0.23237695369758        0.09414221896549
C            6.42228204726638       -0.15866586360753        0.10534167243002
S            5.58312549345097       -1.56975243396770        0.75098532087353
C            3.88975349892590       -1.15442552960634        0.58313552864471
C            2.97679470110068       -2.11394233008209        0.99925180271853
C            1.61636372480349       -1.88508426966030        0.92199007540144
C            1.14247181152379       -0.65992379739689        0.42523596803576
C           -0.29068715721706       -0.39339152765376        0.32741682187701
C           -0.78526845380685        0.90096931851017        0.56758566614545
C           -2.12632152131012        1.20028344765701        0.48454198217987
C           -3.00343183567687        0.18090682551944        0.12898680222283
C           -2.52980765114355       -1.13478591222130       -0.09766884653338
C           -1.18052414454074       -1.41780938884384        0.00380554184144
C           -3.68663537489537       -1.93587868053668       -0.39852082231271
C           -3.86468392218765       -3.27331556260339       -0.72000760449957
C           -5.14526143576247       -3.72613518670223       -0.97735951985961
C           -6.23459181448897       -2.86069982559073       -0.93084335748043
C           -6.08135665800931       -1.52349449697925       -0.61265721092081
C           -4.80166778911245       -1.06973829599831       -0.33052297058442
N           -4.36993161719140        0.20499809503213       -0.01111611869380
C           -5.18946203510959        1.33478939667771        0.13362724185239
C           -4.88551569846766        2.50893137876846       -0.54902069361556
C           -5.69359583146295        3.62072143427852       -0.39945786524218
C           -6.80892051144017        3.56860279215246        0.42025102943094
C           -7.11366240585043        2.39912398971923        1.09708009666935
C           -6.30742974196648        1.28424814536725        0.96094529099596
C            2.06112211695026        0.29627199311389        0.01494211292333
C            3.44935831947397        0.08369314371434        0.06541528599959
H            6.02806845599932        2.90258431426031       -1.23914939569155
H            8.49651912915425        2.78464401050530       -1.25209862438818
H            9.64005435341495        0.75515516769492       -0.39688382112224
H            8.28367221045359       -1.12532795938328        0.46956731888333
H            3.35088910226832       -3.04544460232400        1.39806131840562
H            0.92663571178918       -2.63332126833648        1.27800128110376
H           -0.09182602992617        1.67576500314513        0.85548452739201
H           -2.48534985498572        2.19459163367363        0.70256170002860
H           -0.81892083376782       -2.41511109137317       -0.19341527554175
H           -3.01867893033717       -3.94139961921089       -0.77273020989264
H           -5.30600284743858       -4.76379615222560       -1.22809357119497
H           -7.22101915673307       -3.24009774828796       -1.15182600135454
H           -6.92948420263239       -0.85606422972050       -0.59660077249557
H           -4.02794389670396        2.53755336259918       -1.20437184074962
H           -5.45483880218839        4.52930829844551       -0.93152135276014
H           -7.43916688310248        4.43765335308564        0.53174020678342
H           -7.97929404391000        2.35634240189097        1.74104657751601
H           -6.52748803542172        0.37774743839470        1.50476755592859
H            1.73310970306706        1.23594507476206       -0.40238306174885
