53
 energy: -86.338245512041 gnorm: 0.000040100251 xtb: 6.7.1 (edcfbbe)
O            3.83053809687829       -2.20181751070992        0.87600723425085
C            4.31086371041429       -1.16546706091192        0.44131972926974
C            5.77167362620064       -0.96311069320330        0.42841527477167
C            6.55918575444027       -1.98711680646755        0.97070905450202
C            7.93076279764669       -1.90004713731683        1.00759326915187
C            8.56184339473523       -0.77107803056843        0.49429113745007
C            7.81241002188070        0.24997838208532       -0.04511518362206
C            6.41970322531928        0.16348916426347       -0.08098136554250
S            5.58655392298396        1.52682016697392       -0.79227218969553
C            3.89654412681351        1.10648541007500       -0.62791158768133
C            2.97938917904739        2.05101565574667       -1.09067565008649
C            1.62768359754522        1.81744622342552       -1.00315920055740
C            1.14254313500413        0.62523708085145       -0.45163418117977
C           -0.30045836220885        0.37276252867723       -0.34844759837330
C           -0.80659072741755       -0.90940422373406       -0.60643390750845
C           -2.15195414824018       -1.19680131822518       -0.51369829558789
C           -3.01302388888813       -0.17595602523265       -0.13435615573919
C           -2.52474028755015        1.12904007564448        0.10835282350773
C           -1.16981979283119        1.39883803174700       -0.00032178762996
C           -3.66681934438085        1.93754469202452        0.43201223896909
C           -3.82493724892601        3.27304577432175        0.77773573359879
C           -5.09444693650448        3.73784166400179        1.05647441416090
C           -6.19574244698437        2.88586841526782        1.00802311028078
C           -6.06371788455173        1.55365580035539        0.66615265735523
C           -4.79335093439369        1.08612287524724        0.36171504071927
N           -4.38275583199869       -0.18738448558899        0.01869304468673
C           -5.21634610391722       -1.30454983252313       -0.13813215877519
C           -4.91890359383893       -2.49574107746653        0.51727427081834
C           -5.74078687773333       -3.59564233905500        0.35566008352268
C           -6.86613532468114       -3.51516768783368       -0.44766067627849
C           -7.16583096999044       -2.32882018282902       -1.09647592500263
C           -6.34411993260402       -1.22663748735161       -0.94983811892004
C            2.06262257183799       -0.30596483852366       -0.00235648620224
C            3.44230971692446       -0.09273250123564       -0.07665834778516
H            6.04005231069097       -2.85052950354086        1.35976713033578
H            8.51547009960964       -2.70197647759792        1.43153527550534
H            9.63828514052726       -0.69195958450041        0.51755305627336
H            8.28763806677869        1.13229280111996       -0.44721756764037
H            3.35241539106935        2.96850783760054       -1.52124036113191
H            0.93402527822399        2.55327945921300       -1.38136253609536
H           -0.12251250543512       -1.68746684193005       -0.90989939557323
H           -2.52160136022186       -2.18516183710723       -0.74122436639784
H           -0.79590643921330        2.38998259491897        0.20791976196968
H           -2.96898806966870        3.92881376898784        0.83168521142023
H           -5.24004910299605        4.77331351249853        1.32595591938013
H           -7.17466239514167        3.27455675348940        1.24702132093068
H           -6.92091108528037        0.89760753723684        0.64920320617229
H           -4.05304490400376       -2.54765014940026        1.16027315045665
H           -5.50542719198080       -4.51758379567433        0.86637216791148
H           -7.50789328787503       -4.37480044896478       -0.56792349002192
H           -8.03993559966910       -2.26305462070976       -1.72730749985162
H           -6.56186720721958       -0.30670083365146       -1.47169726742869
H            1.73734630827159       -1.23342827879746        0.44553501757846
