53
 energy: -86.256153859251 gnorm: 0.000068227435 xtb: 6.7.1 (edcfbbe)
O            3.79512858782388       -2.22627722434397        0.84728574219221
C            4.30533683148934       -1.14497024073071        0.41421179702617
C            5.74126177407934       -0.98440498261583        0.40117222809121
C            6.53176629811669       -2.03674053387294        0.90314333200819
C            7.90603101161310       -1.95999632694943        0.92584006854889
C            8.55619966501198       -0.82494090376362        0.45662793070182
C            7.80360078049081        0.22880058864208       -0.03914891934771
C            6.42038121567954        0.15370737614131       -0.06792137124893
S            5.58787845356466        1.56451851409791       -0.72267305421758
C            3.89269429685953        1.15208779322940       -0.56556579417983
C            2.98391216616282        2.11519209878996       -0.98248204223615
C            1.62260317525669        1.88895900175878       -0.91273820865566
C            1.14365583651486        0.66284880999597       -0.42322554393908
C           -0.29052303363288        0.40048550056288       -0.32898004995037
C           -0.78968596073997       -0.89112131927648       -0.57440181820048
C           -2.13166599201363       -1.18640800334755       -0.49106437827520
C           -3.00501880875665       -0.16586820238998       -0.12955819431665
C           -2.52671909530336        1.14735501024964        0.10161332344626
C           -1.17673194024562        1.42652055439166       -0.00058958381968
C           -3.68010286181930        1.95074533596367        0.40925674415832
C           -3.85274949290764        3.28713675450152        0.73792750440093
C           -5.13097246896218        3.74268187967723        1.00201256474321
C           -6.22315102658295        2.88086061975670        0.95497661818178
C           -6.07527346650759        1.54480455349879        0.62950056887910
C           -4.79800834880165        1.08842904242350        0.34064340497867
N           -4.37123766474970       -0.18619516123033        0.01405268126552
C           -5.19539849492469       -1.31243015875536       -0.13236722508986
C           -4.89417433258810       -2.49019853200403        0.54520210867046
C           -5.70775602849254       -3.59787685182316        0.39487633235985
C           -6.82578249930397       -3.53810080892872       -0.42061890861213
C           -7.12762759312557       -2.36510375263780       -1.09264042213158
C           -6.31597730863026       -1.25427198211622       -0.95565949795138
C            2.05820550195308       -0.29756408233770       -0.01363617217636
C            3.44710096462222       -0.08753528371613       -0.05587123474979
H            6.01242383359397       -2.91055099217691        1.26562332912617
H            8.48046296895899       -2.79021467804097        1.30966785792659
H            9.63250812228744       -0.75776869955486        0.47329917832282
H            8.28526910230856        1.12288422045308       -0.40691973391620
H            3.36192457070429        3.04758236190251       -1.37548183251201
H            0.93622405246384        2.64031517752961       -1.26866587673920
H           -0.09909772431534       -1.66700062745453       -0.86626179405696
H           -2.49412192337594       -2.17864818432984       -0.71284378152319
H           -0.81174368246532        2.42179340809560        0.20056775920900
H           -3.00442006285157        3.95225962424969        0.79073454493460
H           -5.28758737394341        4.77956933360746        1.25848964380705
H           -7.20754048154271        3.26214844725990        1.18171266776044
H           -6.92554859441394        0.88011018476699        0.61335685127620
H           -4.03442210990135       -2.52482053234870        1.19739932274512
H           -5.47130417168655       -4.50920160198707        0.92327394705830
H           -7.46045869379925       -4.40387737807975       -0.53247388875247
H           -7.99533146759218       -2.31634787299179       -1.73339112881871
H           -6.53398663111150       -0.34498756163541       -1.49565186262699
H            1.72611275705632       -1.23843245779370        0.39771675881152
