  53
        -86.33820472
 O          3.8369947019       -2.2328911721        0.8031303511
 C          4.3143099837       -1.1828396318        0.3993350424
 C          5.7729118914       -0.9653841828        0.4170838838
 C          6.5593492945       -1.9796669320        0.9790499522
 C          7.9287802334       -1.8777391757        1.0451395120
 C          8.5588515705       -0.7439493979        0.5409530959
 C          7.8104749634        0.2674112417       -0.0179093620
 C          6.4197141150        0.1666582586       -0.0817498787
 S          5.5871527332        1.5182635706       -0.8159118995
 C          3.8973153310        1.0968859460       -0.6514558469
 C          2.9792781568        2.0437349875       -1.1073676450
 C          1.6277509604        1.8097282564       -1.0178406821
 C          1.1435758224        0.6146077575       -0.4717491658
 C         -0.2993823400        0.3637355222       -0.3637104212
 C         -0.8091567148       -0.9168211746       -0.6225243961
 C         -2.1546716476       -1.2020367232       -0.5243231419
 C         -3.0122993826       -0.1805675295       -0.1388891146
 C         -2.5203796461        1.1229661272        0.1046951883
 C         -1.1654937094        1.3904641554       -0.0091802584
 C         -3.6591919332        1.9328248589        0.4362955318
 C         -3.8133009029        3.2677551281        0.7860250639
 C         -5.0804717282        3.7338014252        1.0733084149
 C         -6.1833525582        2.8836229624        1.0294935389
 C         -6.0554233955        1.5522071206        0.6830753859
 C         -4.7875738693        1.0836320496        0.3697722196
 N         -4.3812281483       -0.1897220511        0.0210422324
 C         -5.2196517446       -1.3031471059       -0.1367817929
 C         -4.9251047708       -2.4981889633        0.5128410497
 C         -5.7535194407       -3.5932022935        0.3511870344
 C         -6.8823269395       -3.5040165400       -0.4464718916
 C         -7.1787691119       -2.3140053982       -1.0900817030
 C         -6.3506270656       -1.2166998543       -0.9433334898
 C          2.0647311691       -0.3201072577       -0.0318059109
 C          3.4441793781       -0.1063495637       -0.1080608190
 H          6.0411696264       -2.8475445293        1.3594365143
 H          8.5127754549       -2.6715750254        1.4849904719
 H          9.6336590829       -0.6533870096        0.5872541643
 H          8.2848411267        1.1530977071       -0.4135192653
 H          3.3512483376        2.9638656020       -1.5331862592
 H          0.9334234572        2.5480123369       -1.3899314441
 H         -0.1279479191       -1.6956646033       -0.9304416122
 H         -2.5270291321       -2.1893519875       -0.7521187240
 H         -0.7890014851        2.3803506800        0.2003504961
 H         -2.9561256011        3.9221927106        0.8366239186
 H         -5.2229161197        4.7688648417        1.3460377887
 H         -7.1602046259        3.2731406428        1.2755813300
 H         -6.9136275303        0.8973774982        0.6696967223
 H         -4.0561959826       -2.5570434022        1.1510499683
 H         -5.5206413471       -4.5181755903        0.8575351046
 H         -7.5294921898       -4.3596582203       -0.5661836854
 H         -8.0555304436       -2.2414404861       -1.7166003854
 H         -6.5657595163       -0.2939076239       -1.4614039830
 H          1.7405062940       -1.2504700258        0.4106943782
