53
 energy: -86.338237726053 gnorm: 0.000059802618 xtb: 6.7.1 (edcfbbe)
O            4.36632643355235       -2.07520198889744        0.78618655713476
C            4.83410574604098       -1.04409361869860        0.32615352390243
C            6.29279438533176       -0.82854627051021        0.29882916473106
C            7.09283308573793       -1.82680941518894        0.86997166829597
C            8.46372376904618       -1.72601864662520        0.89578316062892
C            9.08130219891940       -0.60934389812428        0.34084991620241
C            8.31933088067753        0.38644454421052       -0.22748265178459
C            6.92726009525357        0.28667791093491       -0.25106342497097
S            6.07707951687677        1.61843165818783       -1.00112079471544
C            4.39178728682547        1.19624757002970       -0.79717538878937
C            3.46276111326920        2.12395800763297       -1.27016027603875
C            2.11373891653512        1.88722016155706       -1.15386075787830
C            1.64336017491344        0.70812053412798       -0.56284976886711
C            0.20362583853942        0.45244609597837       -0.42710767258884
C           -0.30113640960721       -0.83818017073011       -0.64201505570897
C           -1.64293818589720       -1.12909000969278       -0.51490392973173
C           -2.50118986304715       -0.10270025033599       -0.14423573335827
C           -2.01474175563184        1.21038679556403        0.05458832190715
C           -0.66368857987803        1.48342588197844       -0.08859728439023
C           -3.15389319025076        2.02147663107669        0.38199012286463
C           -3.31139511441883        3.36435893343769        0.69810391661508
C           -4.57689767599903        3.82988560350591        0.99333694787662
C           -5.67451615693048        2.97181447340832        0.98988078137075
C           -5.54304886579077        1.63221965231515        0.67794096228905
C           -4.27715550431024        1.16323304123679        0.35756054284900
N           -3.86728294251073       -0.11660701294744        0.03799347313400
C           -4.69819198254248       -1.24170629338215       -0.06847113776282
C           -4.38056122874318       -2.41211172888152        0.61433114309208
C           -5.20124774744487       -3.51921351835766        0.50393405519992
C           -6.34501041145735       -3.46643097095008       -0.27532152053951
C           -6.66429791652577       -2.30091774860854       -0.95195489157967
C           -5.84421680620750       -1.19191881551265       -0.85644747970109
C            2.57502102156294       -0.20698768236965       -0.10448654305046
C            3.95223262199690        0.01023440773246       -0.20683463317179
H            6.58399943607218       -2.68160340640452        1.29041167853060
H            9.05824329026205       -2.50787464518645        1.34295012419149
H           10.15709196847359       -0.51981363512280        0.35467469311336
H            8.78409299602083        1.25907860217387       -0.66166550589175
H            3.82436912396712        3.03121763683126       -1.73107682570597
H            1.41050549529734        2.61000408350876       -1.53948738802482
H            0.38071791249830       -1.62072409913856       -0.93890542571175
H           -2.01225648444194       -2.12463866143916       -0.70924089984294
H           -0.29055012109835        2.48127448379339        0.08636816750038
H           -2.45785697417787        4.02520073077711        0.71702050906870
H           -4.72198961478597        4.87093007946628        1.24071721448649
H           -6.64997455226220        3.36161839259958        1.24089756044724
H           -6.39697104761790        0.97195047582528        0.69593114309237
H           -3.49999172256993       -2.44203314268086        1.23848339487467
H           -4.95050240928044       -4.42480950382050        1.03611108894699
H           -6.98590671615630       -4.33139275166036       -0.35516934955899
H           -7.55268680770284       -2.25699439976095       -1.56446059961881
H           -6.07759711369003       -0.28846090085214       -1.39989563572270
H            2.26139059331049       -1.12363420200805        0.37299174236263
