  53
        -86.25102608
 O          3.8038902609        2.2524650068       -0.7656007536
 C          4.3073020226        1.1602072017       -0.3734506810
 C          5.7453742785        0.9938897368       -0.3492273207
 C          6.5425836420        2.0691383397       -0.7880689532
 C          7.9174477832        1.9944114875       -0.7955385693
 C          8.5630188037        0.8375403126       -0.3748663763
 C          7.8040762369       -0.2402103340        0.0574963479
 C          6.4204572818       -0.1659876251        0.0715810761
 S          5.5819463127       -1.6082249663        0.6431328486
 C          3.8905893250       -1.1807995739        0.5140776361
 C          2.9781407563       -2.1543171602        0.8985571638
 C          1.6177180658       -1.9194861205        0.8447258266
 C          1.1415970423       -0.6723298122        0.3988205008
 C         -0.2897855690       -0.4027249496        0.3150388623
 C         -0.7829472848        0.8931678715        0.5574496588
 C         -2.1232605075        1.1947069938        0.4802708294
 C         -3.0050695708        0.1759054406        0.1321885157
 C         -2.5348266193       -1.1419751754       -0.0902612380
 C         -1.1858731167       -1.4265407362        0.0005038620
 C         -3.6953577002       -1.9431370472       -0.3776501174
 C         -3.8780279811       -3.2829185970       -0.6852652422
 C         -5.1615089816       -3.7355269337       -0.9298062339
 C         -6.2484618562       -2.8674222074       -0.8846877083
 C         -6.0904187551       -1.5274005083       -0.5795796673
 C         -4.8081885210       -1.0741676442       -0.3092958292
 N         -4.3713021482        0.2021320117       -0.0014155728
 C         -5.1849894572        1.3376575166        0.1311216843
 C         -4.8747400058        2.5009344214       -0.5674953442
 C         -5.6753328151        3.6196871523       -0.4314966556
 C         -6.7894605092        3.5853478781        0.3908397174
 C         -7.1002958464        2.4268424846        1.0835688131
 C         -6.3017501906        1.3047995224        0.9607111202
 C          2.0609996377        0.2972392447        0.0218517032
 C          3.4492790995        0.0823562126        0.0532949430
 H          6.0258388720        2.9591961277       -1.1127356102
 H          8.4964307237        2.8434762699       -1.1280956269
 H          9.6394866658        0.7715527649       -0.3796775414
 H          8.2814041172       -1.1517136846        0.3862939706
 H          3.3530962521       -3.1029245851        1.2540762947
 H          0.9306413951       -2.6790248626        1.1803689137
 H         -0.0881339771        1.6677287891        0.8419957469
 H         -2.4795776697        2.1901451597        0.6976796654
 H         -0.8292379188       -2.4248759455       -0.1993633181
 H         -3.0339222134       -3.9534106789       -0.7368845712
 H         -5.3257262028       -4.7753147220       -1.1690789991
 H         -7.2371015035       -3.2465851761       -1.0956887591
 H         -6.9372659881       -0.8584272710       -0.5636981003
 H         -4.0184322891        2.5148661728       -1.2250261743
 H         -5.4316940149        4.5192516021       -0.9764393446
 H         -7.4135963234        4.4599775023        0.4926546604
 H         -7.9645642167        2.3985149391        1.7301276042
 H         -6.5274425925        0.4069322154        1.5164526577
 H          1.7361345371        1.2540205756       -0.3573845455
