  52
        -84.96307387
 O          7.7909111758        0.8762132438        0.0747428889
 C          6.6823304366        0.4030045643        0.0259580546
 C          6.3510520361       -1.0989366609       -0.2572488949
 O          7.1693059803       -1.9654024430       -0.4553735191
 C          4.8880081503       -1.1927525870       -0.2214080020
 C          4.0077884528       -2.2402376335       -0.3723274794
 C          2.6362459947       -1.9776572880       -0.2858824220
 C          2.1117840555       -0.7136895934       -0.0576182754
 C          0.6604481705       -0.5226945449       -0.0409071903
 C          0.0603276285        0.5021918735       -0.7750027781
 C         -1.3070178764        0.6650468562       -0.7793922344
 C         -2.1285408346       -0.1848455738       -0.0325368028
 N         -3.5065591593       -0.0149767561       -0.0244121234
 C         -4.3582651687       -1.1238890359        0.1055697866
 C         -5.5065029063       -1.0384114339        0.8906127405
 C         -6.3486591236       -2.1272927355        1.0092929041
 C         -6.0570685874       -3.3135275369        0.3559741258
 C         -4.9165302940       -3.4026149156       -0.4251776132
 C         -4.0723455941       -2.3167591614       -0.5562517023
 C         -4.0686777562        1.2652352068       -0.1450261144
 C         -5.2256365994        1.4551770189       -0.8987844668
 C         -5.7860036018        2.7134232705       -1.0059569134
 C         -5.2010710673        3.7978253504       -0.3727840117
 C         -4.0504494658        3.6138917709        0.3762835719
 C         -3.4873354671        2.3579684561        0.4961674682
 C         -1.5300600910       -1.2137434564        0.7015388112
 C         -0.1639628157       -1.3836083353        0.6851798981
 C          3.0041200014        0.3808623321        0.1440752592
 C          2.6782581276        1.7135389860        0.4845602699
 C          3.6623227804        2.6595802553        0.6527122570
 C          5.0275810289        2.3619501987        0.5074509018
 C          5.3812550329        1.0681259057        0.2104142129
 C          4.3717089360        0.0954308146        0.0425976133
 H          4.3622840624       -3.2412078808       -0.5651908529
 H          1.9463342545       -2.7963365604       -0.4340579055
 H          0.6733864230        1.1472730731       -1.3875763291
 H         -1.7546094382        1.4474357931       -1.3744040944
 H         -5.7298920031       -0.1155014551        1.4058977333
 H         -7.2340035730       -2.0505986328        1.6227452534
 H         -6.7153092243       -4.1630840178        0.4538037873
 H         -4.6861338484       -4.3211379822       -0.9441961162
 H         -3.1894475240       -2.3825857508       -1.1757067348
 H         -5.6779810875        0.6110635333       -1.3987052958
 H         -6.6814697181        2.8483742366       -1.5940894982
 H         -5.6400633745        4.7797097154       -0.4609385407
 H         -3.5924622723        4.4524893197        0.8795405096
 H         -2.5983315954        2.2129305447        1.0929517299
 H         -2.1487797595       -1.8730942731        1.2920886104
 H          0.2809908508       -2.1720806267        1.2743671596
 H          1.6438314446        1.9863920202        0.6324858421
 H          3.3801219754        3.6690002279        0.9137097750
 H          5.7756963970        3.1279451544        0.6421680400
  52
        -84.96299293
 O          7.7480675540       -1.2276584121       -0.1904975907
 C          6.6617372067       -0.7172008982       -0.0687146727
 C          6.3992673451        0.7525918285        0.3969523454
 O          7.2565204140        1.5517595958        0.6901406374
 C          4.9417568767        0.9147550340        0.3868392102
 C          4.1103784929        1.9755553356        0.6666417099
 C          2.7282151036        1.7884518442        0.5543653835
 C          2.1471153704        0.5853695432        0.1818271406
 C          0.6881061744        0.4695802554        0.1319903992
 C         -0.0773639654        1.4303028067       -0.5299142389
 C         -1.4493586348        1.3314451767       -0.5847166286
 C         -2.1142425383        0.2788450460        0.0527969344
 N         -3.4978952558        0.1844109206        0.0105165896
 C         -4.1360953890       -1.0651765247        0.0612787197
 C         -5.3098307615       -1.2196807895        0.7970581836
 C         -5.9472262015       -2.4447517384        0.8393210179
 C         -5.4236213666       -3.5309893852        0.1573448672
 C         -4.2577744688       -3.3816233971       -0.5758994818
 C         -3.6175093851       -2.1583644208       -0.6305730216
 C         -4.2897739125        1.3408628399       -0.0880340213
 C         -3.9729970226        2.4830083284        0.6450542311
 C         -4.7589765774        3.6146327166        0.5401503400
 C         -5.8714937816        3.6215192489       -0.2853151540
 C         -6.1949128809        2.4850537385       -1.0083970580
 C         -5.4107538074        1.3511919333       -0.9158322026
 C         -1.3504670260       -0.6714407659        0.7381187791
 C          0.0236413121       -0.5822676352        0.7646888470
 C          2.9877084292       -0.5193385069       -0.1449956496
 C          2.5995666582       -1.7887389110       -0.6306191525
 C          3.5391608264       -2.7508338142       -0.9189431456
 C          4.9175610130       -2.5313309880       -0.7583281634
 C          5.3309446346       -1.2986043538       -0.3145856029
 C          4.3670392969       -0.3091804266       -0.0222736541
 H          4.5101156334        2.9291414233        0.9758594192
 H          2.0759591658        2.6155481586        0.7966450844
 H          0.4186162098        2.2425550884       -1.0409477656
 H         -2.0206386584        2.0674945659       -1.1306481311
 H         -5.7142099160       -0.3742928110        1.3345998140
 H         -6.8548646860       -2.5525961694        1.4143584966
 H         -5.9226119503       -4.4871650979        0.1944807327
 H         -3.8479553811       -4.2211595366       -1.1176247429
 H         -2.7158813920       -2.0393895805       -1.2141793792
 H         -3.1117550480        2.4741719900        1.2975966246
 H         -4.5047305682        4.4938583465        1.1132612774
 H         -6.4831041905        4.5071376749       -0.3639245513
 H         -7.0593307769        2.4827232377       -1.6555245323
 H         -5.6587706978        0.4666115554       -1.4843759107
 H         -1.8473438194       -1.4755590938        1.2605679736
 H          0.5922650392       -1.3107369621        1.3245352303
 H          1.5523854000       -1.9972891888       -0.7931720763
 H          3.2105097381       -3.7101451757       -1.2909076228
 H          5.6297889758       -3.3076721455       -0.9923949256
  52
        -84.96275860
 O          7.7881449142        0.5443740232        0.7351786968
 C          6.6812844321        0.2301187778        0.3731308298
 C          6.3562286879       -0.6991640494       -0.8419755608
 O          7.1778379317       -1.2189917242       -1.5587135459
 C          4.8926974846       -0.7827534669       -0.8927840133
 C          4.0163232194       -1.4562737990       -1.7127982078
 C          2.6430760355       -1.3079169666       -1.4875773758
 C          2.1143899476       -0.5140230691       -0.4808412794
 C          0.6613196763       -0.3696686805       -0.3581838535
 C          0.0714056592        0.8904941033       -0.2489353279
 C         -1.2963905740        1.0281714507       -0.1608232095
 C         -2.1269784796       -0.0962389274       -0.1695615260
 N         -3.5065873955        0.0377693795       -0.0722921621
 C         -4.2698443461       -0.9434957804        0.5801191969
 C         -3.8031982240       -1.5383887652        1.7511718707
 C         -4.5605570384       -2.5006492697        2.3906806920
 C         -5.7924691491       -2.8763781937        1.8806119988
 C         -6.2628637646       -2.2828821307        0.7207554728
 C         -5.5090771355       -1.3253553614        0.0696022327
 C         -4.1569954627        1.1487198317       -0.6314019822
 C         -3.7479203911        1.6651787408       -1.8598573956
 C         -4.3987453927        2.7543961582       -2.4063897818
 C         -5.4677590246        3.3369919754       -1.7455050256
 C         -5.8813191818        2.8231000040       -0.5274665870
 C         -5.2313682396        1.7395331763        0.0313648757
 C         -1.5383798519       -1.3593624285       -0.2827385782
 C         -0.1711009989       -1.4890019650       -0.3838519682
 C          3.0020969772        0.1607319592        0.4084513182
 C          2.6693654777        0.9310923554        1.5460875811
 C          3.6497855568        1.5165159865        2.3126095004
 C          5.0174527674        1.3806296415        2.0210495527
 C          5.3770234301        0.6113311261        0.9412056067
 C          4.3712486822        0.0051382235        0.1573298949
 H          4.3744557094       -2.0763795732       -2.5203421300
 H          1.9562553295       -1.8145327911       -2.1508673028
 H          0.6941650232        1.7732531021       -0.2631945821
 H         -1.7347411260        2.0118627827       -0.0789012603
 H         -2.8476565403       -1.2373759459        2.1560763738
 H         -4.1896866536       -2.9525717437        3.2986634530
 H         -6.3827184837       -3.6258669378        2.3850301726
 H         -7.2203920911       -2.5726194861        0.3145089688
 H         -5.8726344593       -0.8685608950       -0.8393395362
 H         -2.9225604525        1.2037301740       -2.3827046142
 H         -4.0740086152        3.1443961377       -3.3595505458
 H         -5.9760786744        4.1850836900       -2.1778759123
 H         -6.7118361559        3.2728724776       -0.0040155879
 H         -5.5503999375        1.3430044495        0.9843035237
 H         -2.1664867344       -2.2377269176       -0.3009910288
 H          0.2656211559       -2.4737084559       -0.4649926787
 H          1.6324475239        1.0446006685        1.8261133664
 H          3.3627322226        2.0975115929        3.1766686299
 H          5.7624955119        1.8566243954        2.6398647610
  52
        -84.95988109
 O          7.7122890846       -0.1698726230        1.1533166347
 C          6.6312139180       -0.1687810735        0.6190304609
 C          6.3870797854       -0.2466372299       -0.9256421744
 O          7.2535497938       -0.3102088566       -1.7626928685
 C          4.9272984533       -0.2205250563       -1.0971071710
 C          4.1059438849       -0.2593123333       -2.1991240068
 C          2.7168447757       -0.2077137354       -2.0022425829
 C          2.1360165041       -0.1220337872       -0.7523659882
 C          0.6664650154       -0.0656765756       -0.6024662300
 C          0.0010914015        1.1553473631       -0.6298948856
 C         -1.3672336760        1.2156674941       -0.4653530299
 C         -2.1112942635        0.0485266939       -0.2802177169
 N         -3.4930202395        0.1034280750       -0.1107655886
 C         -4.1368101943       -0.8177829910        0.7288340664
 C         -3.5505290448       -1.2104687494        1.9311847418
 C         -4.1898240459       -2.1186006759        2.7527819356
 C         -5.4224025049       -2.6402943216        2.3959045952
 C         -6.0122948139       -2.2476322676        1.2055667882
 C         -5.3765432192       -1.3467002842        0.3732548311
 C         -4.2517172957        1.0839726904       -0.7657473548
 C         -3.9432520468        1.4654825925       -2.0707934056
 C         -4.6950838709        2.4335689463       -2.7080839713
 C         -5.7675937438        3.0270893790       -2.0627951615
 C         -6.0825299652        2.6458188364       -0.7688746279
 C         -5.3308978281        1.6854596999       -0.1198629298
 C         -1.4416633431       -1.1770421009       -0.2637563078
 C         -0.0715746682       -1.2295452159       -0.4149456535
 C          2.9618641307       -0.0827309277        0.4038728971
 C          2.5453557161        0.0078668544        1.7512381085
 C          3.4707170691        0.0421716647        2.7673422250
 C          4.8557693608       -0.0102032499        2.5293382403
 C          5.2926006767       -0.0984493649        1.2294199460
 C          4.3432406642       -0.1331889639        0.1853773871
 H          4.5135579717       -0.3269102880       -3.1961868989
 H          2.0697032912       -0.2367696258       -2.8675322612
 H          0.5663857786        2.0656308248       -0.7676671970
 H         -1.8693400269        2.1717554588       -0.4722032668
 H         -2.5939962195       -0.7964174699        2.2160051118
 H         -3.7255063856       -2.4136451086        3.6821155481
 H         -5.9201985484       -3.3473261609        3.0416439366
 H         -6.9713318156       -2.6521380327        0.9177994638
 H         -5.8343361264       -1.0461815095       -0.5579481406
 H         -3.1147012292        0.9953357637       -2.5805293997
 H         -4.4466521616        2.7194687950       -3.7194513930
 H         -6.3544538979        3.7806183913       -2.5652493412
 H         -6.9146423664        3.1054792541       -0.2565203971
 H         -5.5722601069        1.3959720140        0.8925447869
 H         -2.0050860639       -2.0891345581       -0.1336148158
 H          0.4348106974       -2.1837684203       -0.3986411288
 H          1.4886806222        0.0515958182        1.9733277978
 H          3.1274954860        0.1130744463        3.7890025700
 H          5.5547325254        0.0189496175        3.3511154506
