  52
  -84.9630738700000       0.186779358700489      !
 O          7.7909111758        0.8762132438        0.0747428889
 C          6.6823304366        0.4030045643        0.0259580546
 C          6.3510520361       -1.0989366609       -0.2572488949
 O          7.1693059803       -1.9654024430       -0.4553735191
 C          4.8880081503       -1.1927525870       -0.2214080020
 C          4.0077884528       -2.2402376335       -0.3723274794
 C          2.6362459947       -1.9776572880       -0.2858824220
 C          2.1117840555       -0.7136895934       -0.0576182754
 C          0.6604481705       -0.5226945449       -0.0409071903
 C          0.0603276285        0.5021918735       -0.7750027781
 C         -1.3070178764        0.6650468562       -0.7793922344
 C         -2.1285408346       -0.1848455738       -0.0325368028
 N         -3.5065591593       -0.0149767561       -0.0244121234
 C         -4.3582651687       -1.1238890359        0.1055697866
 C         -5.5065029063       -1.0384114339        0.8906127405
 C         -6.3486591236       -2.1272927355        1.0092929041
 C         -6.0570685874       -3.3135275369        0.3559741258
 C         -4.9165302940       -3.4026149156       -0.4251776132
 C         -4.0723455941       -2.3167591614       -0.5562517023
 C         -4.0686777562        1.2652352068       -0.1450261144
 C         -5.2256365994        1.4551770189       -0.8987844668
 C         -5.7860036018        2.7134232705       -1.0059569134
 C         -5.2010710673        3.7978253504       -0.3727840117
 C         -4.0504494658        3.6138917709        0.3762835719
 C         -3.4873354671        2.3579684561        0.4961674682
 C         -1.5300600910       -1.2137434564        0.7015388112
 C         -0.1639628157       -1.3836083353        0.6851798981
 C          3.0041200014        0.3808623321        0.1440752592
 C          2.6782581276        1.7135389860        0.4845602699
 C          3.6623227804        2.6595802553        0.6527122570
 C          5.0275810289        2.3619501987        0.5074509018
 C          5.3812550329        1.0681259057        0.2104142129
 C          4.3717089360        0.0954308146        0.0425976133
 H          4.3622840624       -3.2412078808       -0.5651908529
 H          1.9463342545       -2.7963365604       -0.4340579055
 H          0.6733864230        1.1472730731       -1.3875763291
 H         -1.7546094382        1.4474357931       -1.3744040944
 H         -5.7298920031       -0.1155014551        1.4058977333
 H         -7.2340035730       -2.0505986328        1.6227452534
 H         -6.7153092243       -4.1630840178        0.4538037873
 H         -4.6861338484       -4.3211379822       -0.9441961162
 H         -3.1894475240       -2.3825857508       -1.1757067348
 H         -5.6779810875        0.6110635333       -1.3987052958
 H         -6.6814697181        2.8483742366       -1.5940894982
 H         -5.6400633745        4.7797097154       -0.4609385407
 H         -3.5924622723        4.4524893197        0.8795405096
 H         -2.5983315954        2.2129305447        1.0929517299
 H         -2.1487797595       -1.8730942731        1.2920886104
 H          0.2809908508       -2.1720806267        1.2743671596
 H          1.6438314446        1.9863920202        0.6324858421
 H          3.3801219754        3.6690002279        0.9137097750
 H          5.7756963970        3.1279451544        0.6421680400
  52
  -84.9630669800000       0.185422509784461      !
 O          7.7462515816       -0.8993817072        0.8224937408
 C          6.6588092564       -0.5559461758        0.4290887498
 C          6.3911215426        0.3406320702       -0.8239872463
 O          7.2448606770        0.7974603162       -1.5466621879
 C          4.9338067243        0.4867762075       -0.8993108341
 C          4.0993470538        1.1708716920       -1.7538739611
 C          2.7185648103        1.0971297574       -1.5400582461
 C          2.1412192704        0.3658335022       -0.5123424602
 C          0.6829821833        0.3076264708       -0.3939118283
 C         -0.0832741858        1.4719194099       -0.4656388821
 C         -1.4549294991        1.4282331950       -0.3551935736
 C         -2.1176938256        0.2073484018       -0.1946930632
 N         -3.5011042474        0.1570273395       -0.0890576613
 C         -4.1198320597       -0.8382444987        0.6841680824
 C         -3.5785036290       -1.2213632816        1.9101482502
 C         -4.1958512906       -2.1987654888        2.6666872377
 C         -5.3612953809       -2.7994953823        2.2196868951
 C         -5.9066290372       -2.4164564726        1.0052481876
 C         -5.2920511938       -1.4458227218        0.2378745299
 C         -4.3037155730        1.0954069683       -0.7571367433
 C         -3.9804988645        1.5152228179       -2.0463398948
 C         -4.7796837757        2.4351761843       -2.6974820263
 C         -5.9124392178        2.9408161723       -2.0809774362
 C         -6.2410945762        2.5207302161       -0.8025071483
 C         -5.4435536009        1.6076583871       -0.1399665926
 C         -1.3540639562       -0.9631361139       -0.1469911524
 C          0.0191100681       -0.9102341322       -0.2356207023
 C          2.9859486184       -0.3225517876        0.4081239302
 C          2.6046163652       -1.0388103025        1.5655545920
 C          3.5475693199       -1.6428837191        2.3639312547
 C          4.9235398720       -1.5775338802        2.0879162362
 C          5.3310947103       -0.8621821991        0.9883069922
 C          4.3637531837       -0.2395451749        0.1697986916
 H          4.4957487378        1.7444086161       -2.5779229363
 H          2.0640062265        1.6137543940       -2.2276771376
 H          0.4118273456        2.4262717744       -0.5700576733
 H         -2.0277077563        2.3433402124       -0.3830822670
 H         -2.6771056429       -0.7432352328        2.2657532659
 H         -3.7684379145       -2.4860066241        3.6158705812
 H         -5.8424171465       -3.5603134217        2.8149132245
 H         -6.8130611048       -2.8818305583        0.6479713357
 H         -5.7134063850       -1.1522957786       -0.7124764821
 H         -3.1046327155        1.1113789767       -2.5333741307
 H         -4.5201110681        2.7518484404       -3.6966119024
 H         -6.5359170982        3.6565601614       -2.5942671417
 H         -7.1208482563        2.9117537558       -0.3135534880
 H         -5.6965109184        1.2852538179        0.8596627577
 H         -1.8512627722       -1.9172188795       -0.0518509569
 H          0.5869694266       -1.8293685307       -0.2313960560
 H          1.5602020811       -1.0967107690        1.8343839732
 H          3.2235488924       -2.1821825789        3.2416828716
 H          5.6385798977       -2.0640910701        2.7332739560
  52
  -84.9630562900000       0.183336810347159      !
 O          7.7949516049        0.8601210866       -0.1392785902
 C          6.6847232744        0.3972410964       -0.0475986241
 C          6.3461953337       -1.0595689295        0.4096020791
 O          7.1596051570       -1.8961538783        0.7229557897
 C          4.8837468519       -1.1562832471        0.3647723293
 C          3.9992827602       -2.1777180084        0.6279829513
 C          2.6296024078       -1.9257894671        0.4943963495
 C          2.1108298269       -0.6971196040        0.1118883484
 C          0.6600374540       -0.5076594637        0.0645724169
 C          0.0594710444        0.5977733941        0.6702445384
 C         -1.3081696616        0.7565033043        0.6598046429
 C         -2.1301347586       -0.1804377645        0.0258518432
 N         -3.5089293964       -0.0182386370        0.0098258796
 C         -4.3603431430       -1.1340248298        0.0269381111
 C         -4.0543127093       -2.2480779992        0.8068729769
 C         -4.9005299490       -3.3401012678        0.8198474393
 C         -6.0637995796       -3.3348652732        0.0677027210
 C         -6.3758241093       -2.2264227449       -0.7022993856
 C         -5.5315632909       -1.1330701138       -0.7286186693
 C         -4.0712633232        1.2682643277       -0.0063915285
 C         -3.5115000937        2.2740107962       -0.7925379617
 C         -4.0701331074        3.5376402749       -0.8046409606
 C         -5.1945706960        3.8140757994       -0.0441623663
 C         -5.7586721346        2.8150239374        0.7321707993
 C         -5.2027345454        1.5503705012        0.7566676553
 C         -1.5307881614       -1.2863369784       -0.5852749771
 C         -0.1641108529       -1.4497289467       -0.5531089829
 C          3.0082127779        0.3643896005       -0.2089428417
 C          2.6898074614        1.6474087427       -0.7094913557
 C          3.6782096281        2.5657341183       -0.9765813181
 C          5.0408549840        2.2863140939       -0.7796504417
 C          5.3876796637        1.0366206711       -0.3268707000
 C          4.3737860593        0.0916738525       -0.0574901569
 H          4.3488387160       -3.1490745610        0.9433129434
 H          1.9359819620       -2.7201766147        0.7312214938
 H          0.6723617146        1.3133615930        1.1988700174
 H         -1.7558586862        1.6038329696        1.1579315164
 H         -3.1543553218       -2.2478867373        1.4048273988
 H         -4.6536863373       -4.1966217067        1.4293563235
 H         -6.7235251508       -4.1887744865        0.0826292385
 H         -7.2795571306       -2.2147933095       -1.2932190895
 H         -5.7716211292       -0.2718094590       -1.3350059180
 H         -2.6418850684        2.0548106615       -1.3955770608
 H         -3.6291853629        4.3084819531       -1.4190457392
 H         -5.6291891960        4.8017291769       -0.0575702073
 H         -6.6331798746        3.0231694646        1.3303080024
 H         -5.6380325248        0.7733061536        1.3680572029
 H         -2.1493871178       -2.0126576753       -1.0915164558
 H          0.2813502746       -2.3015925814       -1.0460571761
 H          1.6578214116        1.9019643207       -0.9012436975
 H          3.4018016302        3.5373529170       -1.3593501269
 H          5.7923717631        3.0301910518       -0.9946568684
  52
  -84.9629929300000       0.171447608433991      !
 O          7.7480675540       -1.2276584121       -0.1904975907
 C          6.6617372067       -0.7172008982       -0.0687146727
 C          6.3992673451        0.7525918285        0.3969523454
 O          7.2565204140        1.5517595958        0.6901406374
 C          4.9417568767        0.9147550340        0.3868392102
 C          4.1103784929        1.9755553356        0.6666417099
 C          2.7282151036        1.7884518442        0.5543653835
 C          2.1471153704        0.5853695432        0.1818271406
 C          0.6881061744        0.4695802554        0.1319903992
 C         -0.0773639654        1.4303028067       -0.5299142389
 C         -1.4493586348        1.3314451767       -0.5847166286
 C         -2.1142425383        0.2788450460        0.0527969344
 N         -3.4978952558        0.1844109206        0.0105165896
 C         -4.1360953890       -1.0651765247        0.0612787197
 C         -5.3098307615       -1.2196807895        0.7970581836
 C         -5.9472262015       -2.4447517384        0.8393210179
 C         -5.4236213666       -3.5309893852        0.1573448672
 C         -4.2577744688       -3.3816233971       -0.5758994818
 C         -3.6175093851       -2.1583644208       -0.6305730216
 C         -4.2897739125        1.3408628399       -0.0880340213
 C         -3.9729970226        2.4830083284        0.6450542311
 C         -4.7589765774        3.6146327166        0.5401503400
 C         -5.8714937816        3.6215192489       -0.2853151540
 C         -6.1949128809        2.4850537385       -1.0083970580
 C         -5.4107538074        1.3511919333       -0.9158322026
 C         -1.3504670260       -0.6714407659        0.7381187791
 C          0.0236413121       -0.5822676352        0.7646888470
 C          2.9877084292       -0.5193385069       -0.1449956496
 C          2.5995666582       -1.7887389110       -0.6306191525
 C          3.5391608264       -2.7508338142       -0.9189431456
 C          4.9175610130       -2.5313309880       -0.7583281634
 C          5.3309446346       -1.2986043538       -0.3145856029
 C          4.3670392969       -0.3091804266       -0.0222736541
 H          4.5101156334        2.9291414233        0.9758594192
 H          2.0759591658        2.6155481586        0.7966450844
 H          0.4186162098        2.2425550884       -1.0409477656
 H         -2.0206386584        2.0674945659       -1.1306481311
 H         -5.7142099160       -0.3742928110        1.3345998140
 H         -6.8548646860       -2.5525961694        1.4143584966
 H         -5.9226119503       -4.4871650979        0.1944807327
 H         -3.8479553811       -4.2211595366       -1.1176247429
 H         -2.7158813920       -2.0393895805       -1.2141793792
 H         -3.1117550480        2.4741719900        1.2975966246
 H         -4.5047305682        4.4938583465        1.1132612774
 H         -6.4831041905        4.5071376749       -0.3639245513
 H         -7.0593307769        2.4827232377       -1.6555245323
 H         -5.6587706978        0.4666115554       -1.4843759107
 H         -1.8473438194       -1.4755590938        1.2605679736
 H          0.5922650392       -1.3107369621        1.3245352303
 H          1.5523854000       -1.9972891888       -0.7931720763
 H          3.2105097381       -3.7101451757       -1.2909076228
 H          5.6297889758       -3.3076721455       -0.9923949256
  52
  -84.9627586000000       0.133795288296798      !
 O          7.7881449142        0.5443740232        0.7351786968
 C          6.6812844321        0.2301187778        0.3731308298
 C          6.3562286879       -0.6991640494       -0.8419755608
 O          7.1778379317       -1.2189917242       -1.5587135459
 C          4.8926974846       -0.7827534669       -0.8927840133
 C          4.0163232194       -1.4562737990       -1.7127982078
 C          2.6430760355       -1.3079169666       -1.4875773758
 C          2.1143899476       -0.5140230691       -0.4808412794
 C          0.6613196763       -0.3696686805       -0.3581838535
 C          0.0714056592        0.8904941033       -0.2489353279
 C         -1.2963905740        1.0281714507       -0.1608232095
 C         -2.1269784796       -0.0962389274       -0.1695615260
 N         -3.5065873955        0.0377693795       -0.0722921621
 C         -4.2698443461       -0.9434957804        0.5801191969
 C         -3.8031982240       -1.5383887652        1.7511718707
 C         -4.5605570384       -2.5006492697        2.3906806920
 C         -5.7924691491       -2.8763781937        1.8806119988
 C         -6.2628637646       -2.2828821307        0.7207554728
 C         -5.5090771355       -1.3253553614        0.0696022327
 C         -4.1569954627        1.1487198317       -0.6314019822
 C         -3.7479203911        1.6651787408       -1.8598573956
 C         -4.3987453927        2.7543961582       -2.4063897818
 C         -5.4677590246        3.3369919754       -1.7455050256
 C         -5.8813191818        2.8231000040       -0.5274665870
 C         -5.2313682396        1.7395331763        0.0313648757
 C         -1.5383798519       -1.3593624285       -0.2827385782
 C         -0.1711009989       -1.4890019650       -0.3838519682
 C          3.0020969772        0.1607319592        0.4084513182
 C          2.6693654777        0.9310923554        1.5460875811
 C          3.6497855568        1.5165159865        2.3126095004
 C          5.0174527674        1.3806296415        2.0210495527
 C          5.3770234301        0.6113311261        0.9412056067
 C          4.3712486822        0.0051382235        0.1573298949
 H          4.3744557094       -2.0763795732       -2.5203421300
 H          1.9562553295       -1.8145327911       -2.1508673028
 H          0.6941650232        1.7732531021       -0.2631945821
 H         -1.7347411260        2.0118627827       -0.0789012603
 H         -2.8476565403       -1.2373759459        2.1560763738
 H         -4.1896866536       -2.9525717437        3.2986634530
 H         -6.3827184837       -3.6258669378        2.3850301726
 H         -7.2203920911       -2.5726194861        0.3145089688
 H         -5.8726344593       -0.8685608950       -0.8393395362
 H         -2.9225604525        1.2037301740       -2.3827046142
 H         -4.0740086152        3.1443961377       -3.3595505458
 H         -5.9760786744        4.1850836900       -2.1778759123
 H         -6.7118361559        3.2728724776       -0.0040155879
 H         -5.5503999375        1.3430044495        0.9843035237
 H         -2.1664867344       -2.2377269176       -0.3009910288
 H          0.2656211559       -2.4737084559       -0.4649926787
 H          1.6324475239        1.0446006685        1.8261133664
 H          3.3627322226        2.0975115929        3.1766686299
 H          5.7624955119        1.8566243954        2.6398647610
  52
  -84.9627519000000       0.132850047149402      !
 O          7.7753485619       -0.1982063351       -0.9947752782
 C          6.6746730866       -0.1831991184       -0.5014805854
 C          6.3666911520       -0.2946617842        1.0276747890
 O          7.1974549565       -0.4057529740        1.8974988585
 C          4.9055782877       -0.2297714511        1.1407799864
 C          4.0425642355       -0.2504111909        2.2125992436
 C          2.6675371546       -0.1696129865        1.9644903927
 C          2.1241426659       -0.0736745248        0.6922383084
 C          0.6686027821       -0.0379180416        0.5249835550
 C         -0.1129515231        0.8232918988        1.2957612140
 C         -1.4812412461        0.8652685690        1.1469757684
 C         -2.1234310245        0.0311890770        0.2266441431
 N         -3.5030019845        0.0766239353        0.0706099005
 C         -4.2231886138       -1.0794589876       -0.2702219002
 C         -3.8963942159       -2.3109201356        0.2948486814
 C         -4.6169803930       -3.4412614724       -0.0403080658
 C         -5.6747141644       -3.3603285658       -0.9311930635
 C         -6.0068824375       -2.1369920759       -1.4898745691
 C         -5.2865628902       -1.0028802004       -1.1679509680
 C         -4.2004835948        1.2819663472        0.2493671561
 C         -3.6669312381        2.4847614140       -0.2103791205
 C         -4.3627147698        3.6653357520       -0.0345547818
 C         -5.5985665624        3.6645390580        0.5912980161
 C         -6.1354796767        2.4705149390        1.0438516723
 C         -5.4438181357        1.2858398748        0.8792347639
 C         -1.3447919677       -0.8493890414       -0.5301837947
 C          0.0249520240       -0.8778718405       -0.3845409970
 C          2.9988276558       -0.0150112197       -0.4328892607
 C          2.6530003693        0.1744384289       -1.7904636323
 C          3.6221193426        0.2211597516       -2.7651935461
 C          4.9909401534        0.0943735427       -2.4750994368
 C          5.3640983030       -0.0599423489       -1.1620239900
 C          4.3699047579       -0.1043634397       -0.1603302764
 H          4.4120065903       -0.3368182518        3.2228783904
 H          1.9904686403       -0.2115611627        2.8058392573
 H          0.3656620249        1.4816755654        2.0058458008
 H         -2.0684889634        1.5420188463        1.7498616292
 H         -3.0792519173       -2.3731941019        0.9989882829
 H         -4.3559556030       -4.3896930314        0.4052668997
 H         -6.2377008014       -4.2447948262       -1.1870425266
 H         -6.8266124369       -2.0657996858       -2.1893015852
 H         -5.5408219312       -0.0503741454       -1.6095984555
 H         -2.7081934607        2.4856541762       -0.7085848522
 H         -3.9405163644        4.5902958708       -0.3984882378
 H         -6.1408267758        4.5881947881        0.7229973213
 H         -7.0986362586        2.4604089588        1.5312822536
 H         -5.8573952091        0.3567661641        1.2437163450
 H         -1.8241771278       -1.5076938560       -1.2396231152
 H          0.6059315528       -1.5803146396       -0.9644064393
 H          1.6152559995        0.3018194235       -2.0613933210
 H          3.3251844303        0.3694873759       -3.7929447468
 H          5.7268659226        0.1349437437       -3.2630643161
  52
  -84.9598810900000       6.368377287700121E-003 !
 O          7.7122890846       -0.1698726230        1.1533166347
 C          6.6312139180       -0.1687810735        0.6190304609
 C          6.3870797854       -0.2466372299       -0.9256421744
 O          7.2535497938       -0.3102088566       -1.7626928685
 C          4.9272984533       -0.2205250563       -1.0971071710
 C          4.1059438849       -0.2593123333       -2.1991240068
 C          2.7168447757       -0.2077137354       -2.0022425829
 C          2.1360165041       -0.1220337872       -0.7523659882
 C          0.6664650154       -0.0656765756       -0.6024662300
 C          0.0010914015        1.1553473631       -0.6298948856
 C         -1.3672336760        1.2156674941       -0.4653530299
 C         -2.1112942635        0.0485266939       -0.2802177169
 N         -3.4930202395        0.1034280750       -0.1107655886
 C         -4.1368101943       -0.8177829910        0.7288340664
 C         -3.5505290448       -1.2104687494        1.9311847418
 C         -4.1898240459       -2.1186006759        2.7527819356
 C         -5.4224025049       -2.6402943216        2.3959045952
 C         -6.0122948139       -2.2476322676        1.2055667882
 C         -5.3765432192       -1.3467002842        0.3732548311
 C         -4.2517172957        1.0839726904       -0.7657473548
 C         -3.9432520468        1.4654825925       -2.0707934056
 C         -4.6950838709        2.4335689463       -2.7080839713
 C         -5.7675937438        3.0270893790       -2.0627951615
 C         -6.0825299652        2.6458188364       -0.7688746279
 C         -5.3308978281        1.6854596999       -0.1198629298
 C         -1.4416633431       -1.1770421009       -0.2637563078
 C         -0.0715746682       -1.2295452159       -0.4149456535
 C          2.9618641307       -0.0827309277        0.4038728971
 C          2.5453557161        0.0078668544        1.7512381085
 C          3.4707170691        0.0421716647        2.7673422250
 C          4.8557693608       -0.0102032499        2.5293382403
 C          5.2926006767       -0.0984493649        1.2294199460
 C          4.3432406642       -0.1331889639        0.1853773871
 H          4.5135579717       -0.3269102880       -3.1961868989
 H          2.0697032912       -0.2367696258       -2.8675322612
 H          0.5663857786        2.0656308248       -0.7676671970
 H         -1.8693400269        2.1717554588       -0.4722032668
 H         -2.5939962195       -0.7964174699        2.2160051118
 H         -3.7255063856       -2.4136451086        3.6821155481
 H         -5.9201985484       -3.3473261609        3.0416439366
 H         -6.9713318156       -2.6521380327        0.9177994638
 H         -5.8343361264       -1.0461815095       -0.5579481406
 H         -3.1147012292        0.9953357637       -2.5805293997
 H         -4.4466521616        2.7194687950       -3.7194513930
 H         -6.3544538979        3.7806183913       -2.5652493412
 H         -6.9146423664        3.1054792541       -0.2565203971
 H         -5.5722601069        1.3959720140        0.8925447869
 H         -2.0050860639       -2.0891345581       -0.1336148158
 H          0.4348106974       -2.1837684203       -0.3986411288
 H          1.4886806222        0.0515958182        1.9733277978
 H          3.1274954860        0.1130744463        3.7890025700
 H          5.5547325254        0.0189496175        3.3511154506
