  75
       -113.08730149
 N        -10.2505877443        1.2112619503        0.2057215316
 C         -9.1097389326        1.0623420666        0.1667109777
 C         -7.7207598386        0.8845200706        0.1204476343
 C         -7.1052956363       -0.1349777423        0.8675665426
 C         -5.7502739776       -0.3163384461        0.8069869322
 C         -4.9301995680        0.5127052714        0.0050119826
 C         -3.5122388469        0.3219930640       -0.0747089316
 C         -2.6576375013        1.4318852953       -0.1717423503
 C         -1.2909724476        1.3428648079       -0.0540169083
 C         -0.5052723482        2.5623333241        0.0964190591
 C          0.5166010952        2.6449165778        1.0513206523
 C          1.2613329824        3.7982929024        1.1885989569
 C          1.0080838249        4.8961679132        0.3811185478
 C         -0.0129507079        4.8354969475       -0.5560310140
 C         -0.7658084948        3.6872515590       -0.6927602516
 C         -0.6731874543        0.0380767260        0.0702995395
 C          0.7351560798       -0.1430577542       -0.0274039616
 C          1.5539942688        0.7273309763       -0.7976079891
 C          2.9121207248        0.5967620230       -0.8241499346
 C          3.5541025880       -0.4157285592       -0.0877807632
 N          4.9375869621       -0.5106632994       -0.0687315452
 C          5.7167292767        0.6488827678       -0.1131857524
 C          6.9307613138        0.6596948432       -0.8032750853
 C          7.6940642590        1.8091751694       -0.8452788062
 C          7.2619124524        2.9631058026       -0.2101621394
 C          6.0561059230        2.9580389900        0.4740456002
 C          5.2873105828        1.8131999990        0.5283014647
 C          5.5535312676       -1.7641664019       -0.0003288191
 C          6.7092584296       -1.9459052058        0.7618039912
 C          7.3074441908       -3.1883711806        0.8268808821
 C          6.7660416012       -4.2654332454        0.1420387845
 C          5.6177562327       -4.0900124220       -0.6145560193
 C          5.0131299016       -2.8513057810       -0.6902517238
 C          2.7548416155       -1.3296021622        0.6271632246
 C          1.3950460198       -1.2050223206        0.6440375557
 C         -1.5332285548       -1.0722946840        0.1771493043
 C         -2.8970826418       -0.9800430134        0.0605298826
 C         -3.6808007537       -2.2084721972       -0.0624939220
 C         -4.6700723961       -2.3312104216       -1.0432969818
 C         -5.3908847401       -3.5008307737       -1.1730803488
 C         -5.1446547865       -4.5720532202       -0.3285052122
 C         -4.1596400372       -4.4675389513        0.6412035867
 C         -3.4298779858       -3.3024784096        0.7691326053
 C         -5.5633308695        1.5562978464       -0.7096004828
 C         -6.9197378203        1.7313200643       -0.6671121172
 H         -7.7149921050       -0.7674536552        1.4967808751
 H         -5.2910830427       -1.0768615716        1.4195156687
 H         -3.1041077346        2.4155269517       -0.1986975919
 H          0.6990510892        1.8050076778        1.7055773742
 H          2.0421627824        3.8465474674        1.9343319980
 H          1.5965215495        5.7955618569        0.4849191656
 H         -0.2168695739        5.6889652060       -1.1865395130
 H         -1.5417270428        3.6393934137       -1.4432256117
 H          1.0855989939        1.4736136273       -1.4193186106
 H          3.5086055231        1.2578187768       -1.4360724502
 H          7.2608159044       -0.2337395958       -1.3125912546
 H          8.6290126882        1.8071067633       -1.3853530604
 H          7.8605792939        3.8599959205       -0.2485668772
 H          5.7156543976        3.8512918965        0.9758724282
 H          4.3551468236        1.8061628182        1.0733804308
 H          7.1229359816       -1.1103954025        1.3071190205
 H          8.1981516868       -3.3195121652        1.4229139453
 H          7.2364387905       -5.2350041906        0.1972717331
 H          5.1947185021       -4.9225148900       -1.1565613192
 H          4.1277184903       -2.7092591628       -1.2921756939
 H          3.2355805838       -2.1099360505        1.1993923771
 H          0.8141099728       -1.8869926582        1.2456608194
 H         -1.0906773709       -2.0574178403        0.2114731105
 H         -4.8541648165       -1.5078171525       -1.7173765465
 H         -6.1496056269       -3.5800721584       -1.9379072528
 H         -5.7153934260       -5.4834376467       -0.4263691510
 H         -3.9639387316       -5.2986674837        1.3032727800
 H         -2.6785064620       -3.2194351184        1.5417496357
 H         -4.9684209566        2.1959307497       -1.3450126738
 H         -7.3913184834        2.5155644417       -1.2421749505
