75
 energy: -113.173865765328 gnorm: 0.000083650712 xtb: 6.7.1 (edcfbbe)
N          -10.54227093964313        1.27902475462224       -0.18529556008078
C           -9.40548233967209        1.12864691349920       -0.16439228125543
C           -8.00534707692648        0.94387761283597       -0.14231707934256
C           -7.38465457233670        0.42824353639769        0.99694321953176
C           -6.01925962757649        0.24090207771343        1.00855190927236
C           -5.24672088305213        0.56126563969659       -0.10787154721501
C           -3.78822176654911        0.37086944550342       -0.09407027445952
C           -2.96496975702232        1.42192191623690       -0.47968274078903
C           -1.58055054013269        1.32598077528062       -0.43892632477705
C           -0.76588310508044        2.49723620926683       -0.80535988096429
C            0.24115020933400        2.95610282919327        0.03974397632575
C            0.99562497281645        4.06086371922349       -0.30600976571555
C            0.75673439016805        4.72322421681856       -1.49885494460941
C           -0.24910140951300        4.28046846049499       -2.34068660266455
C           -1.00869828558048        3.17796821864853       -1.99456275242141
C           -0.99576735204617        0.12663136768819       -0.00973223559092
C            0.46424988864811       -0.05422384080122        0.00713938616894
C            1.10349137341760       -0.54097687800880        1.14431236029867
C            2.47326718747350       -0.69817017783326        1.17446511395970
C            3.24430613511797       -0.38120489760611        0.05614512661935
N            4.63456261458285       -0.52584943756687        0.08969493677280
C            5.33832444791400       -0.19086503083727        1.25193117003770
C            4.93869710777828        0.89662025347678        2.02876533174602
C            5.63155800667771        1.22308136184864        3.17803045121924
C            6.73456119712797        0.48099412261823        3.56752317652547
C            7.13802115100046       -0.59752281926444        2.79740887128626
C            6.44659697288634       -0.93743312517902        1.65096711317643
C            5.31733860242062       -0.99089316567277       -1.03936356295819
C            4.74901318405502       -1.97124687933211       -1.85269937896849
C            5.42420485691692       -2.42815219262876       -2.96753360406553
C            6.67502154023591       -1.92530757512404       -3.28608381693841
C            7.24515787518899       -0.95356563831228       -2.48008083499703
C            6.57434172798373       -0.48378623464147       -1.36785004272955
C            2.60442299556438        0.08395076295864       -1.09322626101408
C            1.23597913274761        0.24568076853976       -1.11327948361590
C           -1.81939474024472       -0.92343379715150        0.37555613069765
C           -3.20436342888079       -0.82801742103441        0.33692990399981
C           -4.01837646814490       -2.00033996635494        0.70086336892255
C           -5.02457147763970       -2.45940219717955       -0.14520703941948
C           -5.77963174748313       -3.56440955394949        0.19928528950744
C           -5.54194974336029       -4.22638860944936        1.39251767401238
C           -4.53658782323793       -3.78376633289053        2.23535268209460
C           -3.77622812721111       -2.68160852301550        1.89023894486067
C           -5.87395532117993        1.09211119801357       -1.23438964256859
C           -7.24003544579798        1.27936597159638       -1.25990083902225
H           -7.98046619778325        0.17991046513400        1.86287975941702
H           -5.53933997173361       -0.14922991658434        1.89343304401448
H           -3.41510275369123        2.35895951660262       -0.77673861693312
H            0.42217437944628        2.44854280070301        0.97588176033424
H            1.77331223149585        4.40869336708378        0.35828015985646
H            1.35076907756304        5.58343698849870       -1.76984519073315
H           -0.44172530998149        4.79509851548222       -3.27091502107237
H           -1.78501460810783        2.82594782924165       -2.65936171828744
H            0.51919864914044       -0.78226959236211        2.02084702866092
H            2.95823765944936       -1.06819499105238        2.06603807663582
H            4.08548157609120        1.48320515768483        1.72024215742041
H            5.31317228121734        2.06932510842348        3.76911654519663
H            7.27585545141944        0.74144265821399        4.46431517438723
H            7.99370855562674       -1.18509017054454        3.09614870229807
H            6.75744921104097       -1.78490833054238        1.05764071917267
H            3.77821727538651       -2.37266531866693       -1.60090206389138
H            4.97352202131127       -3.18962891332465       -3.58706556519376
H            7.20139900353146       -2.28781975385717       -4.15588742192610
H            8.21741394190696       -0.55104764383484       -2.72381850257820
H            7.01726854384734        0.28146316420337       -0.74730669387432
H            3.19145475455128        0.32576791556550       -1.96691909313690
H            0.75551198369172        0.60824216444268       -2.00985009274150
H           -1.36811742327390       -1.85856337128385        0.67615998837903
H           -5.20434809314157       -1.95339082400399       -1.08280428996932
H           -6.55662134452095       -3.91133296433501       -0.46605983914168
H           -6.13643271280532       -5.08638472200979        1.66280821457151
H           -4.34503280740790       -4.29849041456614        3.16570042277792
H           -2.99969092585604       -2.32980980922512        2.55475598440615
H           -5.28215321287595        1.33940101021935       -2.10385711360786
H           -7.72470482727030        1.68092323638679       -2.13790615528187
