  51
        -92.67160335
 Cl        -0.3961774438        4.1262895353        1.2220479221
 C         -0.2320017398        2.5093090987        0.6691182762
 N         -1.3604265768        1.8324378295        0.4956366724
 C         -1.3604980454        0.5689286162        0.1543644126
 N         -2.5596586965       -0.0690605378        0.0118098641
 C         -2.7683571200       -1.4440952508        0.0401866655
 C         -1.8755303995       -2.4778305906        0.2802568044
 C         -2.3606651728       -3.7738248629        0.2669794656
 C         -3.7060860900       -4.0435447720        0.0407071936
 C         -4.6084477373       -3.0155626990       -0.1723434406
 C         -4.1405975762       -1.7118409950       -0.1675043718
 C         -4.7924422478       -0.4359897510       -0.3201537579
 C         -6.1089595765       -0.0703921874       -0.5472118320
 C         -6.4125075918        1.2770676500       -0.6463172887
 C         -5.4190572828        2.2430777101       -0.5261436603
 C         -4.0969905287        1.8983936519       -0.3018292549
 C         -3.7893363977        0.5505437667       -0.1907778362
 C         -0.1123241896       -0.1304634859       -0.1415504249
 Cl        -0.0530663772       -0.7840649999       -1.8178790494
 C          1.1133747633        0.5836411332        0.2055819040
 N          2.3134093084       -0.1020998489        0.0923964258
 C          2.5593942035       -1.3216248365        0.6849652423
 C          1.7556226717       -2.0465031542        1.5519916746
 C          2.2390023165       -3.2581573126        2.0116687099
 C          3.4990230964       -3.7206642909        1.6417165944
 C          4.3195792677       -2.9793974897        0.8079681599
 C          3.8515286789       -1.7676815755        0.3250347723
 C          4.4036517802       -0.7522291370       -0.5348721120
 C          5.6037497485       -0.6289700177       -1.2163899792
 C          5.8003251270        0.4851654218       -2.0143743627
 C          4.8079033088        1.4505665727       -2.1564790710
 C          3.6012751138        1.3485864303       -1.4881978309
 C          3.4161609051        0.2547675418       -0.6546456112
 C          1.0420594764        1.9092560723        0.5667703667
 Cl         2.4485168350        2.7915093469        1.0552400323
 H         -0.8332743025       -2.2823640951        0.4673752184
 H         -1.6771876277       -4.5904210288        0.4436500447
 H         -4.0497211692       -5.0670766803        0.0414902385
 H         -5.6554449802       -3.2211700661       -0.3348618272
 H         -6.8776193530       -0.8211113319       -0.6453427910
 H         -7.4324373103        1.5836844556       -0.8224493551
 H         -5.6821401589        3.2864755735       -0.6116957657
 H         -3.3292807624        2.6471778567       -0.2100343268
 H          0.7963399369       -1.6651475969        1.8655735207
 H          1.6320495271       -3.8504692734        2.6797531437
 H          3.8450833099       -4.6690226397        2.0240356436
 H          5.3024918510       -3.3354901793        0.5399379697
 H          6.3636509979       -1.3906777652       -1.1315557058
 H          6.7309715262        0.6022719567       -2.5486160816
 H          4.9808269612        2.2956949816       -2.8055519872
 H          2.8284023079        2.0880022074       -1.6222893987
