  51
  -92.4092599470000       0.468144330883304      !
 Cl        -0.2180424747        3.8650008955        1.8950415107
 C         -0.1543631830        2.3111875583        1.1514558049
 N         -1.3152139315        1.8015567422        0.8137275126
 C         -1.3328604057        0.5219345030        0.2813112624
 N         -2.5913725506        0.0076515354        0.0307457994
 C         -3.0320272513       -1.2652197009        0.3268880705
 C         -2.4019300660       -2.2744664137        1.0435401769
 C         -3.0818078045       -3.4656078444        1.2216803007
 C         -4.3645490731       -3.6492077394        0.7076220624
 C         -5.0186428213       -2.6310267658        0.0324079186
 C         -4.3606034055       -1.4254673012       -0.1498555418
 C         -4.7388932427       -0.1639322448       -0.7265455023
 C         -5.8932883121        0.3077614458       -1.3298352444
 C         -5.9189447132        1.6206432917       -1.7764773267
 C         -4.8156232459        2.4581894692       -1.6247116939
 C         -3.6499439013        2.0089399631       -1.0290240263
 C         -3.6207684407        0.6969567892       -0.5775140237
 C         -0.1575905620       -0.1444916210       -0.0367149234
 Cl        -0.1929904925       -1.5999724877       -0.9864630154
 C          1.0841968869        0.4144061032        0.2755421268
 N          2.2892130797       -0.1774642664       -0.0801209626
 C          2.7191314904       -1.4257764532        0.3052498778
 C          2.1028055845       -2.3474950493        1.1410887577
 C          2.7599023647       -3.5394962322        1.3821250761
 C          4.0022739964       -3.8080108064        0.8095301600
 C          4.6336371518       -2.8819595692       -0.0049282255
 C          3.9969457799       -1.6774702431       -0.2579928192
 C          4.3455392341       -0.5028599966       -1.0104410930
 C          5.4464050438       -0.1377072223       -1.7694063139
 C          5.4401348024        1.0992739906       -2.3933070697
 C          4.3526301303        1.9635301635       -2.2759359700
 C          3.2455476685        1.6246921162       -1.5201694378
 C          3.2561870617        0.3948832759       -0.8765213084
 C          1.0673112804        1.6968686896        0.9642090798
 Cl         2.5278097095        2.3178626183        1.6222337136
 H         -1.4210186909       -2.1284956578        1.4663289383
 H         -2.6131129249       -4.2651705976        1.7744762993
 H         -4.8616588645       -4.5955959487        0.8574921791
 H         -6.0238355434       -2.7687611157       -0.3353762593
 H         -6.7537017396       -0.3330283044       -1.4481646316
 H         -6.8102191689        2.0030832709       -2.2507763343
 H         -4.8701886615        3.4750299085       -1.9818053442
 H         -2.7929617473        2.6491428924       -0.9001323113
 H          1.1489870267       -2.1322424920        1.5965663687
 H          2.3051876366       -4.2746545834        2.0285521138
 H          4.4841577033       -4.7516409234        1.0167811593
 H          5.6034840658       -3.0906162253       -0.4300170401
 H          6.2887041053       -0.8046491167       -1.8726316347
 H          6.2893783741        1.4001685484       -2.9879170558
 H          4.3747573311        2.9141097239       -2.7862921701
 H          2.4001357191        2.2892839069       -1.4332301022
  51
  -92.4086240178000       0.238850933635243      !
 Cl        -0.1811715842        3.8797900627        1.8556526766
 C         -0.1407160669        2.3198735278        1.1210422242
 N         -1.3002094778        1.8485004530        0.7331722850
 C         -1.3309648376        0.5544889821        0.2377465779
 N         -2.5929978654        0.0334702771        0.0121260410
 C         -3.0421867056       -1.2034130962        0.4226667363
 C         -2.4109606729       -2.1494638281        1.2194503004
 C         -3.1019417503       -3.3095816197        1.5177790748
 C         -4.3932096122       -3.5239648392        1.0391319106
 C         -5.0417791388       -2.5698804832        0.2708069298
 C         -4.3724109002       -1.3958653620       -0.0337387752
 C         -4.7365153161       -0.1939219104       -0.7361935283
 C         -5.8785040568        0.2226128269       -1.4000109798
 C         -5.8825940676        1.4798101594       -1.9861894832
 C         -4.7712575094        2.3172679232       -1.9121594362
 C         -3.6188688884        1.9239746030       -1.2550057798
 C         -3.6109357067        0.6667218472       -0.6672943362
 C         -0.1667586757       -0.1429173129       -0.0513744623
 Cl        -0.2458586581       -1.6046573375       -0.9914452859
 C          1.0806219555        0.3879149572        0.2821435073
 N          2.2852411348       -0.1905606458       -0.0908658913
 C          2.7004214378       -1.4702284152        0.1971338595
 C          2.0681039784       -2.4556872113        0.9447466180
 C          2.7071627502       -3.6738391410        1.0798612669
 C          3.9521408601       -3.9060955401        0.4971702149
 C          4.6068142377       -2.9145534065       -0.2153776035
 C          3.9869383406       -1.6842716868       -0.3636752490
 C          4.3622869853       -0.4507643684       -0.9989314713
 C          5.4880446147       -0.0282252181       -1.6884925037
 C          5.5087769349        1.2601229893       -2.1971545619
 C          4.4211644133        2.1176900714       -2.0380962108
 C          3.2888744049        1.7205833742       -1.3513024730
 C          3.2750951971        0.4404684341       -0.8141957600
 C          1.0675228096        1.6616165337        0.9935156445
 Cl         2.5012246807        2.2044797576        1.7705305134
 H         -1.4216548103       -1.9741678316        1.6111943179
 H         -2.6354827406       -4.0595936274        2.1380139175
 H         -4.9005719586       -4.4439396240        1.2870061614
 H         -6.0512351897       -2.7323454394       -0.0745866675
 H         -6.7445392776       -0.4186062758       -1.4617692671
 H         -6.7630537755        1.8174874081       -2.5118677214
 H         -4.8094647464        3.2889623577       -2.3800663184
 H         -2.7552314246        2.5646367586       -1.1840020868
 H          1.1141957090       -2.2733620956        1.4130121877
 H          2.2347051731       -4.4594327176        1.6494473051
 H          4.4179163889       -4.8725153152        0.6173358646
 H          5.5808060338       -3.0936738006       -0.6444737343
 H          6.3295764926       -0.6901729388       -1.8248360376
 H          6.3785626971        1.6072766262       -2.7340864151
 H          4.4629981958        3.1097048669       -2.4610802695
 H          2.4436675877        2.3810105064       -1.2363295747
  51
  -92.4085255170000       0.215208346044575      !
 Cl        -0.1221460039        2.4716500630        3.5032717601
 C         -0.0968998808        1.5003348863        2.0797057477
 N         -1.2707157373        1.0649879842        1.6801287233
 C         -1.3219062620        0.3142351749        0.5169955449
 N         -2.5944632597       -0.0451399175        0.1102613151
 C         -3.5734472328       -0.5440171380        0.9447362107
 C         -3.5246703134       -0.7754398768        2.3124405337
 C         -4.6506570320       -1.3090987326        2.9153951598
 C         -5.7914337817       -1.6127200089        2.1745250975
 C         -5.8440955886       -1.3862049553        0.8068780786
 C         -4.7308119827       -0.8491185723        0.1810113841
 C         -4.4322016434       -0.4782411418       -1.1748991719
 C         -5.1566867827       -0.5022835973       -2.3559445933
 C         -4.5752367771        0.0163939402       -3.5021057060
 C         -3.3002263132        0.5796644047       -3.4726338971
 C         -2.5533038006        0.6042345446       -2.3081652695
 C         -3.1088179303        0.0404088581       -1.1667913788
 C         -0.1638940167       -0.0695134785       -0.1443504242
 Cl        -0.2186219489       -1.2020021263       -1.4606588357
 C          1.0861687460        0.3868788553        0.2807762368
 N          2.2815607183       -0.0351511519       -0.2982627808
 C          2.7730280726       -1.3198871681       -0.2926326659
 C          2.2314514703       -2.4630179304        0.2796588637
 C          2.9379703528       -3.6442947288        0.1464372663
 C          4.1513090281       -3.6876807264       -0.5375458219
 C          4.7051661640       -2.5453900088       -1.0938465870
 C          4.0206790254       -1.3473461261       -0.9663432140
 C          4.2883292809        0.0052299403       -1.3770105706
 C          5.3300086928        0.6181962728       -2.0549360723
 C          5.2509454879        1.9802039548       -2.2991966309
 C          4.1491577556        2.7274412569       -1.8861156840
 C          3.0995566677        2.1402423392       -1.2040888072
 C          3.1827649804        0.7791597292       -0.9417437799
 C          1.1018265159        1.2618707018        1.4420965857
 Cl         2.6003790952        1.8617956109        2.0316093853
 H         -2.6406482904       -0.5275795590        2.8763379143
 H         -4.6443597357       -1.4960023897        3.9781626377
 H         -6.6503492878       -2.0318337596        2.6768266373
 H         -6.7329398047       -1.6219847601        0.2417726447
 H         -6.1570550993       -0.9065967623       -2.3781064444
 H         -5.1248191950        0.0048774652       -4.4311598950
 H         -2.8902211620        1.0106722583       -4.3729508188
 H         -1.5785264419        1.0650968646       -2.2856256776
 H          1.2956084710       -2.4255128390        0.8155915387
 H          2.5432139847       -4.5494840612        0.5819654006
 H          4.6714841414       -4.6293804810       -0.6271765857
 H          5.6513324349       -2.5858073157       -1.6115070849
 H          6.1830924109        0.0460197761       -2.3863307648
 H          6.0546584569        2.4741762220       -2.8240456272
 H          4.1151402803        3.7841380258       -2.1033431212
 H          2.2444774314        2.7147529337       -0.8835887031
  51
  -92.4075639629000       7.779638943687779E-002 !
 Cl        -0.2914771414        4.0903162733        1.3641762643
 C         -0.1697105026        2.4897181805        0.7554322965
 N         -1.3143675799        1.8407756692        0.5815731954
 C         -1.3458421889        0.5895206886        0.1990910193
 N         -2.5598628306       -0.0202358060        0.0587730729
 C         -2.7952267128       -1.3911924424        0.0460262748
 C         -1.9187680257       -2.4492829647        0.2348293299
 C         -2.4296729626       -3.7345653556        0.1883695531
 C         -3.7841526308       -3.9707361450       -0.0207084264
 C         -4.6697544840       -2.9191080564       -0.1825168894
 C         -4.1761314001       -1.6254919200       -0.1439032365
 C         -4.8052700712       -0.3329930195       -0.2420400416
 C         -6.1182716095        0.0651574454       -0.4316132256
 C         -6.3968267016        1.4207455616       -0.4805950835
 C         -5.3823510574        2.3629756920       -0.3479217912
 C         -4.0634383902        1.9857078014       -0.1605108264
 C         -3.7805643400        0.6292546710       -0.0996834341
 C         -0.1175017352       -0.1235132114       -0.1435680896
 Cl        -0.1023940229       -0.7221495530       -1.8412695864
 C          1.1283603919        0.5550048723        0.2031666133
 N          2.3122473032       -0.1495264924        0.0444785742
 C          2.5449721047       -1.3925419298        0.5918718110
 C          1.7432410486       -2.1302175761        1.4499475883
 C          2.2109582859       -3.3655183121        1.8602369187
 C          3.4544627952       -3.8396121555        1.4511388846
 C          4.2739160037       -3.0869866826        0.6265318936
 C          3.8210910077       -1.8511469990        0.1927101944
 C          4.3771617602       -0.8185134579       -0.6438761498
 C          5.5665901866       -0.6957827192       -1.3439416693
 C          5.7703529683        0.4402359416       -2.1085729951
 C          4.7948021037        1.4287049113       -2.1998078678
 C          3.5990217847        1.3278021456       -1.5121455765
 C          3.4077801276        0.2106847639       -0.7115259926
 C          1.0900766042        1.8690302634        0.6089615931
 Cl         2.5225928158        2.7074116093        1.0989715713
 H         -0.8695416965       -2.2801886390        0.4081770805
 H         -1.7593584110       -4.5695515010        0.3249707433
 H         -4.1479451932       -4.9869409611       -0.0468998631
 H         -5.7234639685       -3.0990609918       -0.3315239539
 H         -6.9033602606       -0.6669892337       -0.5395197641
 H         -7.4135731616        1.7525719974       -0.6269195636
 H         -5.6262342454        3.4134984227       -0.3941153687
 H         -3.2794555700        2.7161494492       -0.0589809487
 H          0.7977060051       -1.7411216107        1.7942683862
 H          1.6049036735       -3.9679043938        2.5200783948
 H          3.7886949060       -4.8066062005        1.7954069454
 H          5.2444200664       -3.4528037011        0.3281041701
 H          6.3126813751       -1.4743414939       -1.2987794273
 H          6.6930454924        0.5571074140       -2.6564876234
 H          4.9723553742        2.2914275460       -2.8240071624
 H          2.8386059559        2.0859689204       -1.6070113927
