  51
  -92.6716033500000       0.475618255193097      !
 Cl        -0.3961774438        4.1262895353        1.2220479221
 C         -0.2320017398        2.5093090987        0.6691182762
 N         -1.3604265768        1.8324378295        0.4956366724
 C         -1.3604980454        0.5689286162        0.1543644126
 N         -2.5596586965       -0.0690605378        0.0118098641
 C         -2.7683571200       -1.4440952508        0.0401866655
 C         -1.8755303995       -2.4778305906        0.2802568044
 C         -2.3606651728       -3.7738248629        0.2669794656
 C         -3.7060860900       -4.0435447720        0.0407071936
 C         -4.6084477373       -3.0155626990       -0.1723434406
 C         -4.1405975762       -1.7118409950       -0.1675043718
 C         -4.7924422478       -0.4359897510       -0.3201537579
 C         -6.1089595765       -0.0703921874       -0.5472118320
 C         -6.4125075918        1.2770676500       -0.6463172887
 C         -5.4190572828        2.2430777101       -0.5261436603
 C         -4.0969905287        1.8983936519       -0.3018292549
 C         -3.7893363977        0.5505437667       -0.1907778362
 C         -0.1123241896       -0.1304634859       -0.1415504249
 Cl        -0.0530663772       -0.7840649999       -1.8178790494
 C          1.1133747633        0.5836411332        0.2055819040
 N          2.3134093084       -0.1020998489        0.0923964258
 C          2.5593942035       -1.3216248365        0.6849652423
 C          1.7556226717       -2.0465031542        1.5519916746
 C          2.2390023165       -3.2581573126        2.0116687099
 C          3.4990230964       -3.7206642909        1.6417165944
 C          4.3195792677       -2.9793974897        0.8079681599
 C          3.8515286789       -1.7676815755        0.3250347723
 C          4.4036517802       -0.7522291370       -0.5348721120
 C          5.6037497485       -0.6289700177       -1.2163899792
 C          5.8003251270        0.4851654218       -2.0143743627
 C          4.8079033088        1.4505665727       -2.1564790710
 C          3.6012751138        1.3485864303       -1.4881978309
 C          3.4161609051        0.2547675418       -0.6546456112
 C          1.0420594764        1.9092560723        0.5667703667
 Cl         2.4485168350        2.7915093469        1.0552400323
 H         -0.8332743025       -2.2823640951        0.4673752184
 H         -1.6771876277       -4.5904210288        0.4436500447
 H         -4.0497211692       -5.0670766803        0.0414902385
 H         -5.6554449802       -3.2211700661       -0.3348618272
 H         -6.8776193530       -0.8211113319       -0.6453427910
 H         -7.4324373103        1.5836844556       -0.8224493551
 H         -5.6821401589        3.2864755735       -0.6116957657
 H         -3.3292807624        2.6471778567       -0.2100343268
 H          0.7963399369       -1.6651475969        1.8655735207
 H          1.6320495271       -3.8504692734        2.6797531437
 H          3.8450833099       -4.6690226397        2.0240356436
 H          5.3024918510       -3.3354901793        0.5399379697
 H          6.3636509979       -1.3906777652       -1.1315557058
 H          6.7309715262        0.6022719567       -2.5486160816
 H          4.9808269612        2.2956949816       -2.8055519872
 H          2.8284023079        2.0880022074       -1.6222893987
  51
  -92.6706940000000       0.181698018222506      !
 Cl        -0.3286538259        3.9200149372        1.7613705814
 C         -0.2208488176        2.3442084264        1.0710644453
 N         -1.3649850361        1.8008483943        0.7289086072
 C         -1.3478044610        0.5043473906        0.2390091157
 N         -2.5911532964       -0.0427382421       -0.0177082871
 C         -3.0128925037       -1.3136958089        0.3122627700
 C         -2.3774281708       -2.2861894071        1.0735990393
 C         -3.0376019757       -3.4840934958        1.2784938727
 C         -4.3064541634       -3.7098654269        0.7470513858
 C         -4.9668749035       -2.7275603835        0.0263805080
 C         -4.3287289751       -1.5158172615       -0.1835190990
 C         -4.7200172821       -0.2816344499       -0.8086842439
 C         -5.8714410915        0.1470229476       -1.4486510194
 C         -5.9137141565        1.4437754701       -1.9390100971
 C         -4.8298073540        2.3075670236       -1.7946325964
 C         -3.6673883126        1.9013116631       -1.1627973294
 C         -3.6217083899        0.6056866691       -0.6675382476
 C         -0.1540506837       -0.1487154632       -0.0348238029
 Cl        -0.1432112951       -1.6349913695       -0.9362480007
 C          1.0705359744        0.4446446563        0.2817492302
 N          2.2933170300       -0.1345622611       -0.0316141842
 C          2.7396410740       -1.3607855677        0.4028913857
 C          2.1251690153       -2.2666241372        1.2572507954
 C          2.8002822832       -3.4368082641        1.5498814332
 C          4.0583668827       -3.6992742472        1.0097082814
 C          4.6873761360       -2.7881064620        0.1768497002
 C          4.0326522405       -1.6054333582       -0.1278355120
 C          4.3730291491       -0.4494626261       -0.9122335352
 C          5.4810737951       -0.0876487300       -1.6622989010
 C          5.4630473818        1.1278272310       -2.3269094839
 C          4.3570862451        1.9737313795       -2.2585190254
 C          3.2423833223        1.6379846166       -1.5126387697
 C          3.2642596443        0.4304103556       -0.8284518614
 C          1.0157758738        1.7484259609        0.9270501077
 Cl         2.4511487366        2.4195194965        1.5911462986
 H         -1.4078158893       -2.1069996733        1.5094751535
 H         -2.5643559556       -4.2556347310        1.8661342639
 H         -4.7880849702       -4.6604991261        0.9189733888
 H         -5.9619758352       -2.8971965140       -0.3552555492
 H         -6.7169520934       -0.5142422985       -1.5616290445
 H         -6.8028814822        1.7926955176       -2.4422260637
 H         -4.8970149581        3.3108607296       -2.1862224534
 H         -2.8254992222        2.5622690404       -1.0393089408
 H          1.1588067847       -2.0555011777        1.6875233765
 H          2.3474217753       -4.1592336045        2.2117803592
 H          4.5542110231       -4.6258533698        1.2570792567
 H          5.6690495447       -2.9913233737       -0.2229769403
 H          6.3378578240       -0.7407825243       -1.7276597518
 H          6.3176354988        1.4258327179       -2.9152844447
 H          4.3707638204        2.9073050718       -2.7996360642
 H          2.3828459748        2.2881739240       -1.4635320140
  51
  -92.6706669500000       0.176570794513853      !
 Cl        -0.4305465336        1.5504175173        3.9987737323
 C         -0.2792369498        0.9382147644        2.3946175551
 N         -1.4093598738        0.6391240182        1.7988165437
 C         -1.3579397603        0.2031488628        0.4839410871
 N         -2.5870605477       -0.0198326966       -0.1072666294
 C         -3.6482832196       -0.6645504565        0.4965883421
 C         -3.7418180773       -1.1874557180        1.7787602788
 C         -4.9294194843       -1.8004292676        2.1386478157
 C         -5.9916021716       -1.9008285569        1.2423332778
 C         -5.9009654396       -1.3849337065       -0.0419472854
 C         -4.7234560186       -0.7632469795       -0.4242706936
 C         -4.2849181154       -0.1195809318       -1.6324091899
 C         -4.8831142135        0.1245744838       -2.8580454725
 C         -4.1824148215        0.8533610061       -3.8057225872
 C         -2.9142647067        1.3624308114       -3.5299359013
 C         -2.2940172026        1.1236474556       -2.3170999983
 C         -2.9672262998        0.3488608245       -1.3811243986
 C         -0.1460079525       -0.0518435807       -0.1434214949
 Cl        -0.0898720021       -0.8936228175       -1.6632981450
 C          1.0621916503        0.2322139709        0.4985490685
 N          2.2985558626       -0.0318119055       -0.0766249987
 C          3.2711995957       -0.8531508461        0.4477520838
 C          3.2410713129       -1.6182617529        1.6056366677
 C          4.3597100408       -2.3732788092        1.9057151466
 C          5.4782107372       -2.3712446088        1.0734934863
 C          5.5051571723       -1.6248129466       -0.0933344457
 C          4.3932860275       -0.8641568643       -0.4193999187
 C          4.0595134855       -0.0074280466       -1.5248095931
 C          4.7265394210        0.3849690933       -2.6744388294
 C          4.0994394160        1.2702179070       -3.5362117219
 C          2.8307422849        1.7756620738       -3.2566799818
 C          2.1434685590        1.3958191187       -2.1191096007
 C          2.7566818019        0.4898305713       -1.2643210232
 C          0.9742374788        0.8088438644        1.8316896529
 Cl         2.3952728187        1.4120656417        2.5851305876
 H         -2.9169061308       -1.0975225691        2.4658274681
 H         -5.0337775790       -2.2115196477        3.1309417631
 H         -6.9019651373       -2.3893603422        1.5555999469
 H         -6.7299500954       -1.4633287436       -0.7286296729
 H         -5.8781615847       -0.2383183767       -3.0648363541
 H         -4.6318604580        1.0503225866       -4.7672192860
 H         -2.4090954839        1.9585459394       -4.2742127464
 H         -1.3252316725        1.5438642544       -2.1005085913
 H          2.3720091272       -1.6231315853        2.2449718708
 H          4.3667371366       -2.9776990610        2.7999146414
 H          6.3355939288       -2.9693335219        1.3431061661
 H          6.3715876199       -1.6358173979       -0.7368835002
 H          5.7160076654        0.0117478338       -2.8899291931
 H          4.6042236659        1.5850242381       -4.4369936568
 H          2.3789489595        2.4789520369       -3.9394790373
 H          1.1689057508        1.7990598748       -1.8928957618
  51
  -92.6701732200000       0.104716778582218      !
 Cl        -0.2779379329        3.9387263175        1.7141255586
 C         -0.1987493698        2.3549366992        1.0359158729
 N         -1.3435838995        1.8495256416        0.6473618899
 C         -1.3439980074        0.5385623594        0.1976583081
 N         -2.5930542545       -0.0125921336       -0.0285709943
 C         -3.0271443751       -1.2421367493        0.4186208671
 C         -2.3922948744       -2.1481443892        1.2579292774
 C         -3.0676644001       -3.3092584521        1.5865907049
 C         -4.3472613360       -3.5634304313        1.0962191615
 C         -5.0000403454       -2.6487062452        0.2847994837
 C         -4.3464204918       -1.4743113773       -0.0508956326
 C         -4.7201628547       -0.3045093323       -0.8009373571
 C         -5.8585446343        0.0679142771       -1.4964088943
 C         -5.8751757287        1.3034636653       -2.1267327911
 C         -4.7798669738        2.1627843493       -2.0654825416
 C         -3.6313862216        1.8135362776       -1.3773344152
 C         -3.6109363646        0.5780542353       -0.7454182066
 C         -0.1634154512       -0.1475992873       -0.0488158820
 Cl        -0.2021966251       -1.6426502399       -0.9376311212
 C          1.0691110554        0.4168897489        0.2846599234
 N          2.2893598691       -0.1526571740       -0.0492360737
 C          2.7220860903       -1.4137704482        0.2901891282
 C          2.0952058322       -2.3835238969        1.0625094217
 C          2.7531043845       -3.5845295310        1.2503954716
 C          4.0110121371       -3.8147710121        0.6953285051
 C          4.6595804357       -2.8373063097       -0.0418277505
 C          4.0208578032       -1.6242998046       -0.2430242880
 C          4.3847501252       -0.4073474839       -0.9157700088
 C          5.5137913410        0.0108057627       -1.6026308292
 C          5.5202054424        1.2806502372       -2.1562208325
 C          4.4154757890        2.1236505053       -2.0442172732
 C          3.2795061253        1.7306956384       -1.3611217995
 C          3.2794491537        0.4702020654       -0.7792939069
 C          1.0226112897        1.7143607868        0.9502005224
 Cl         2.4341659594        2.3097930259        1.7292560435
 H         -1.4125194427       -1.9414933930        1.6582461777
 H         -2.5981419565       -4.0285356208        2.2400295383
 H         -4.8424341022       -4.4830709988        1.3687571546
 H         -6.0009182463       -2.8412686431       -0.0699627865
 H         -6.7122231304       -0.5904938426       -1.5486085179
 H         -6.7529215620        1.6066310952       -2.6773911183
 H         -4.8275221651        3.1165973489       -2.5680325013
 H         -2.7802417502        2.4716697728       -1.3159130643
 H          1.1309691555       -2.2019798696        1.5094383596
 H          2.2853911486       -4.3579641201        1.8401792878
 H          4.4915398851       -4.7678705940        0.8567226768
 H          5.6432183056       -3.0139119582       -0.4494238860
 H          6.3687503576       -0.6403386149       -1.7026124535
 H          6.3922347781        1.6242529070       -2.6917960166
 H          4.4467741711        3.1007807037       -2.5013779894
 H          2.4212384740        2.3795038675       -1.2824970660
  51
  -92.6690230300000       3.100455825658572E-002 !
 Cl        -0.2264307963        2.8263775006        3.2182613356
 C         -0.1590133207        1.7105101227        1.9064207927
 N         -1.3195412509        1.2247753367        1.5265931613
 C         -1.3365278482        0.3550215616        0.4484610417
 N         -2.5960734444       -0.0568214197        0.0510761491
 C         -3.5925533082       -0.4737137601        0.9094846241
 C         -3.5767979118       -0.5590400481        2.2947723123
 C         -4.7141661912       -1.0362892135        2.9231183771
 C         -5.8339079021       -1.4267603388        2.1908911430
 C         -5.8535166262       -1.3463433710        0.8060845453
 C         -4.7282913452       -0.8682195822        0.1542893330
 C         -4.3979751803       -0.6398222416       -1.2255430935
 C         -5.0922685377       -0.7949625883       -2.4147500775
 C         -4.4854536776       -0.3948894394       -3.5947979555
 C         -3.2152558213        0.1799066709       -3.5939468996
 C         -2.4981179685        0.3340260357       -2.4207271257
 C         -3.0785934787       -0.1112108338       -1.2400315580
 C         -0.1597484922       -0.0858465768       -0.1401470723
 Cl        -0.1739427770       -1.3513869240       -1.3302729774
 C          1.0762201385        0.4242045638        0.2647145449
 N          2.2885375977       -0.0457030124       -0.2371128421
 C          2.7879916196       -1.3181505769       -0.0836808857
 C          2.2395440233       -2.3993687483        0.5928863694
 C          2.9568110693       -3.5816400938        0.6025946200
 C          4.1872714413       -3.6859472018       -0.0431555257
 C          4.7475974776       -2.6037650626       -0.7034379671
 C          4.0523906816       -1.4052243172       -0.7200659678
 C          4.3215756113       -0.1011699312       -1.2647934084
 C          5.3760441730        0.4462618463       -1.9781104552
 C          5.2943748137        1.7741076233       -2.3668711075
 C          4.1777162141        2.5507274574       -2.0621238897
 C          3.1150588328        2.0292790036       -1.3476475267
 C          3.2004097553        0.7042994375       -0.9409058675
 C          1.0569295661        1.4169841424        1.3270409693
 Cl         2.5362304954        2.0893677133        1.8862047774
 H         -2.7088998476       -0.2450271138        2.8507028451
 H         -4.7334716811       -1.1099167164        3.9995261223
 H         -6.7024962186       -1.7983055512        2.7135837018
 H         -6.7262827782       -1.6485150807        0.2475580820
 H         -6.0891281054       -1.2084289543       -2.4184403702
 H         -5.0113407653       -0.5093893364       -4.5305584451
 H         -2.7854628448        0.5171927608       -4.5245158891
 H         -1.5272153383        0.8035307234       -2.4232650461
 H          1.2902576716       -2.3140138183        1.0988533068
 H          2.5570473324       -4.4393560582        1.1216296406
 H          4.7156114457       -4.6270819287       -0.0199927169
 H          5.7067615037       -2.6899935329       -1.1906808058
 H          6.2408922714       -0.1499204933       -2.2262326029
 H          6.1078647023        2.2172088666       -2.9212402045
 H          4.1423667607        3.5782426466       -2.3906295389
 H          2.2484756290        2.6266143332       -1.1106511233
  51
  -92.6690041600000       3.039159523174007E-002 !
 Cl        -0.3283238176        3.6434517578        2.2625092642
 C         -0.2211893017        2.1680001848        1.3783568806
 N         -1.3565897314        1.7360698002        0.8736924413
 C         -1.3438344182        0.5351896894        0.1859442067
 N         -2.5798595134        0.1086175033       -0.2682894839
 C         -3.4986289807        0.9114325836       -0.9126492740
 C         -3.4213747808        2.2640109616       -1.2138442935
 C         -4.4828276617        2.8328477891       -1.8965543442
 C         -5.5875110728        2.0730027386       -2.2765223010
 C         -5.6683490869        0.7202224852       -1.9798460095
 C         -4.6199743203        0.1287134448       -1.2938493700
 C         -4.3660606711       -1.2035581876       -0.8183671213
 C         -5.0859861778       -2.3870588002       -0.8544818754
 C         -4.5639019615       -3.5013291688       -0.2167879592
 C         -3.3555405246       -3.4362962665        0.4756367267
 C         -2.6137993698       -2.2691233527        0.5161629530
 C         -3.1044947192       -1.1625118409       -0.1650700864
 C         -0.1598402992       -0.1444119824       -0.0584997793
 Cl        -0.1234258874       -1.5317438822       -1.1033365949
 C          1.0501327437        0.3137111086        0.4728723723
 N          2.2735487908       -0.2901257882        0.1914790295
 C          3.1074959176       -0.8672252674        1.1196751142
 C          2.9224917151       -1.0196506795        2.4874869071
 C          3.9216818903       -1.6524473406        3.2037349196
 C          5.0731180940       -2.1243068148        2.5757360775
 C          5.2532211221       -1.9920175457        1.2078577411
 C          4.2636750429       -1.3657977047        0.4668581230
 C          4.0980289131       -1.0687115174       -0.9306878663
 C          4.8645247281       -1.3005836334       -2.0615856418
 C          4.3985186319       -0.8421355662       -3.2837300667
 C          3.1932553778       -0.1498197920       -3.3851709930
 C          2.4064273569        0.0869688156       -2.2729083134
 C          2.8576149109       -0.3911228147       -1.0499138138
 C          0.9936256644        1.5271485756        1.2711048136
 Cl         2.4391399730        2.1664365902        1.9466253633
 H         -2.5664847244        2.8433155312       -0.9063441898
 H         -4.4535744527        3.8835006892       -2.1408653256
 H         -6.3955268348        2.5484175733       -2.8119729048
 H         -6.5291356120        0.1402754849       -2.2758326007
 H         -6.0380504627       -2.4352996313       -1.3603416996
 H         -5.1103664909       -4.4320813335       -0.2365402670
 H         -2.9946023269       -4.3104301826        0.9952505201
 H         -1.6931379806       -2.2172802460        1.0754739661
 H          2.0293663241       -0.6544939624        2.9700189552
 H          3.8085090077       -1.7835792455        4.2690449904
 H          5.8349637205       -2.6077433733        3.1684706956
 H          6.1433260003       -2.3700939359        0.7285020212
 H          5.8051737994       -1.8249896562       -1.9902165683
 H          4.9823698414       -1.0154258586       -4.1750761800
 H          2.8689860601        0.2102663622       -4.3496617588
 H          1.4772190945        0.6302282014       -2.3482641229
