  85
  -98.5619527947000       0.951542504434484      !
 C          0.2304793994        4.6858864596        0.8894149667
 C         -0.6001876253        4.2048103729       -0.3067088912
 C         -1.8334131631        5.0901068698       -0.4718529097
 C         -0.9261580839        2.7411297736       -0.1497841571
 C         -2.1083128062        2.2575177802        0.2246242265
 C         -2.3888264718        0.8318999275        0.3019952203
 C         -3.6943531215        0.5343903217        1.0184715442
 C         -4.8974871273        0.6151385356        0.0734316062
 C         -3.7270431483       -0.7742173776        1.8054997060
 C         -1.5409423817       -0.0610435449       -0.2461470350
 C         -1.9530480945       -1.4689623940       -0.4577880810
 C         -2.9514373870       -1.7425426977       -1.3940131160
 C         -3.3852972922       -3.0343963333       -1.6271996469
 C         -2.8275737489       -4.0922507560       -0.9293509517
 C         -1.8368795379       -3.8379703415        0.0023268506
 C         -1.4067242239       -2.5435857459        0.2350875557
 C         -0.1894565918        0.3766187011       -0.8029298393
 C         -0.1994979318        0.3722077388       -2.3607292050
 C         -1.3603215560        1.1973349869       -2.9175844374
 C         -0.1833217712       -1.0126475072       -3.0029588032
 P          1.1135295312       -0.9092021066       -0.1897296043
 C          2.7068902243       -0.2843875705       -1.0164943860
 C          3.5899966628        0.7408456213       -0.3098068523
 C          4.7530775988        1.1332470295       -1.2215488086
 C          5.5899626376       -0.0894667710       -1.5826233456
 C          4.7185739631       -1.1418022883       -2.2605045403
 C          3.5473958382       -1.5194753226       -1.3585177993
 C          1.4392489613       -0.4105096751        1.6097781554
 C          0.2101184560       -0.2331348591        2.4993923056
 C          0.6519272217        0.1706249837        3.9056166507
 C          1.5475380023       -0.9055761755        4.5125352085
 C          2.7588152962       -1.1517766554        3.6183339175
 C          2.3153073792       -1.5168692963        2.2043157799
 C          0.2149890655        1.7858213216       -0.3294827550
 H          0.4693836218        5.7416570470        0.7839378772
 H          1.1618211887        4.1302981863        0.9645916291
 H         -0.3296330069        4.5483670502        1.8116869125
 H          0.0156435664        4.3140627246       -1.2076827788
 H         -2.4670656648        4.7200576400       -1.2746965456
 H         -2.4133435426        5.1200750437        0.4469066362
 H         -1.5306149531        6.1067741836       -0.7128903002
 H         -2.9370850841        2.9136672869        0.4375126292
 H         -3.8085092850        1.3426135849        1.7509239731
 H         -5.8220366467        0.6507240141        0.6467288461
 H         -4.9309806966       -0.2575617146       -0.5701925479
 H         -4.8424028827        1.5079565789       -0.5462411361
 H         -3.8210319953       -1.6300865930        1.1486421972
 H         -4.5807347192       -0.7668202783        2.4816621681
 H         -2.8220285616       -0.8831969518        2.3959698439
 H         -3.3881261890       -0.9326750721       -1.9573212752
 H         -4.1610723164       -3.2171738295       -2.3577170505
 H         -3.1640829186       -5.1024620108       -1.1092339761
 H         -1.3977765389       -4.6549081769        0.5570794838
 H         -0.6530123030       -2.3725597013        0.9837965112
 H          0.7161747036        0.8795886871       -2.6813036596
 H         -1.2958866699        2.2274354056       -2.5825443343
 H         -1.3347669615        1.1832382136       -4.0063454468
 H         -2.3107912490        0.7946800124       -2.5887071238
 H          0.6097797657       -1.6206446661       -2.5735035813
 H         -0.0030171718       -0.9181906874       -4.0734891956
 H         -1.1243394609       -1.5272302139       -2.8570263092
 H          2.3881965968        0.1480842480       -1.9681597366
 H          4.0004291950        0.3159914037        0.6057917274
 H          3.0239466139        1.6374861572       -0.0579552660
 H          5.3784127139        1.8767298992       -0.7210878404
 H          4.3639536117        1.5861580296       -2.1363806541
 H          6.4104980631        0.2001782628       -2.2422612058
 H          6.0238473852       -0.5110228751       -0.6733532514
 H          4.3357868898       -0.7421639899       -3.2021732618
 H          5.3137522040       -2.0280219991       -2.4905255136
 H          2.9227878999       -2.2648999669       -1.8568108265
 H          3.9344643043       -1.9726136433       -0.4451424710
 H          2.0109866414        0.5210030240        1.6361423510
 H         -0.4617614895        0.5221119378        2.0955522014
 H         -0.3412774891       -1.1698147971        2.5735412948
 H          1.1995964031        1.1151400222        3.8631064144
 H         -0.2251152427        0.3233002523        4.5391443862
 H          1.8743928227       -0.6050772436        5.5103382851
 H          0.9785918810       -1.8324490037        4.6114410895
 H          3.3728405510       -1.9532069759        4.0356412272
 H          3.3701108875       -0.2465890559        3.5837656963
 H          1.7494612732       -2.4505344144        2.2308553720
 H          3.1931536347       -1.6824035225        1.5791085199
 H          0.7124168811        1.7235174894        0.6392437121
 H          0.9357232405        2.2042997736       -1.0346154285
  85
  -98.5591391377000       4.845749556551650E-002 !
 C         -0.2340488721        4.3404690531        1.5915941306
 C          0.0003522011        3.7877517958        0.1861715004
 C         -0.6100086480        4.7406797497       -0.8495317671
 C         -0.5549389591        2.3976618831       -0.0134653409
 C         -1.5759978792        1.8957064195        0.6780325759
 C         -2.1279042895        0.5867094362        0.3944463691
 C         -3.3686797851        0.2151334332        1.1787994358
 C         -3.0617096817        0.1500733281        2.6775853936
 C         -4.5064995047        1.2000705387        0.9015230348
 C         -1.5315077872       -0.2545716417       -0.4770481499
 C         -2.1249340033       -1.5915396074       -0.7016472078
 C         -3.3801782184       -1.7102392460       -1.2995218394
 C         -3.9595097460       -2.9500788632       -1.4958635771
 C         -3.3050497296       -4.0985371355       -1.0816503207
 C         -2.0719292364       -3.9920814487       -0.4613746767
 C         -1.4908252828       -2.7514148348       -0.2715812544
 C         -0.2397689651        0.1057646990       -1.1812075549
 C         -0.2535813915       -0.2976178589       -2.6897700439
 C         -1.5505508986        0.1308115950       -3.3863721325
 C         -0.0167523125       -1.7725063514       -3.0095684985
 P          1.1901149161       -0.9032552670       -0.3157843836
 C          2.7830431306        0.0413822888       -0.7054645722
 C          3.9182869156       -0.7327792561       -0.0324982655
 C          5.2162300781        0.0810119841       -0.0688557884
 C          5.3199117853        0.8964907859       -1.3633179165
 C          4.5934490327        0.1694356983       -2.4885608454
 C          3.0842972886        0.1171433580       -2.2090701773
 C          0.9105156305       -0.4308838339        1.4940143278
 C          1.2691038896       -1.6250088947        2.3855430002
 C          0.7982689978       -1.3802055651        3.8167358283
 C          1.4194281640       -0.1020785200        4.3703511100
 C          1.0823299189        1.0795022150        3.4665833496
 C          1.5770650146        0.8265750098        2.0434455664
 C          0.0140312935        1.6284800097       -1.1658364306
 H          0.0936417214        3.6286502427        2.3437123826
 H         -1.2867971591        4.5591530296        1.7494950550
 H          0.3229457892        5.2656736651        1.7239309523
 H          1.0817938245        3.7556783496        0.0114599762
 H         -0.3683272763        4.4244191589       -1.8613297738
 H         -1.6925620448        4.7622312798       -0.7443856039
 H         -0.2283486922        5.7491098316       -0.7060119983
 H         -2.0262934593        2.4572418214        1.4777439726
 H         -3.7018120274       -0.7771264683        0.8753254642
 H         -2.2844978326       -0.5870607429        2.8649993245
 H         -3.9521218616       -0.1438770382        3.2298292361
 H         -2.7283562004        1.1114249380        3.0593849518
 H         -5.4110798818        0.8855599172        1.4180625844
 H         -4.7177210752        1.2439732197       -0.1649364298
 H         -4.2535082453        2.2019248118        1.2388688443
 H         -3.9060548893       -0.8194425497       -1.6098699683
 H         -4.9279543314       -3.0212444740       -1.9702366178
 H         -3.7571233987       -5.0671314056       -1.2346883523
 H         -1.5604486196       -4.8811218560       -0.1212795966
 H         -0.5298767244       -2.6763931368        0.2119215534
 H          0.5660512479        0.2601121392       -3.1486150275
 H         -1.9140329675        1.0889712810       -3.0260136234
 H         -1.3866387234        0.2095792159       -4.4601962718
 H         -2.3223266790       -0.6104768274       -3.2174850847
 H          0.0907062092       -1.8900357027       -4.0873412901
 H         -0.8475219220       -2.3841942487       -2.6808916732
 H          0.8889903601       -2.1388488093       -2.5338841411
 H          2.7555512534        1.0449975407       -0.2766361761
 H          4.0516562514       -1.6783317184       -0.5588936018
 H          3.6697792417       -0.9698990625        0.9995726909
 H          6.0667786394       -0.5985543199        0.0114377423
 H          5.2570581169        0.7567316678        0.7885474687
 H          4.8664157487        1.8799053161       -1.2269252937
 H          6.3675148083        1.0529326153       -1.6247683917
 H          4.7709853752        0.6724915810       -3.4411406721
 H          4.9981665981       -0.8396444592       -2.5718307056
 H          2.6183077418        1.0069009123       -2.6341962948
 H          2.6678834369       -0.7535093001       -2.7144093615
 H         -0.1737805578       -0.2950721096        1.5644766612
 H          0.8045838868       -2.5360883752        2.0013509136
 H          2.3480895187       -1.7854746566        2.3937153462
 H         -0.2886847305       -1.2837956151        3.8277050048
 H          1.0659125663       -2.2300920422        4.4489178241
 H          1.0540372860        0.0828451905        5.3831054853
 H          2.5041405779       -0.2203039459        4.4233284304
 H          1.5392954095        1.9899176778        3.8644777252
 H          0.0010261710        1.2197456633        3.4498651599
 H          2.6601822921        0.7092462256        2.0679688367
 H          1.3269076593        1.6851387281        1.4244632745
 H          1.0835930817        1.8205605953       -1.2349347117
 H         -0.4250185139        2.0625141848       -2.0707101121
