  63
       -106.20231959
 C          8.6168009763       -0.7027302994        0.5407767280
 C          7.7520217683       -1.5041544487       -0.4323637221
 N          6.5207006677       -1.9673389455        0.1745979572
 C          6.5690373536       -3.2818687321        0.7807623224
 C          6.1200978682       -4.3831344168       -0.1807466128
 C          5.3922709043       -1.2120130166        0.1655681782
 C          4.1571473064       -1.7075839324        0.6459534915
 C          3.0104918669       -0.9634732470        0.5866872240
 C          2.9937619834        0.3317262464        0.0451264463
 C          4.2421946276        0.8697460944       -0.3208379893
 C          5.3993738984        0.1140799591       -0.2882110404
 O          4.3757169450        2.1563698568       -0.7168321229
 C          3.3610341315        3.0751977815       -0.5878367882
 O          3.6426334578        4.2233479072       -0.8184253859
 C          2.0459340140        2.5440213695       -0.2516225582
 C          0.9542168502        3.4963332522       -0.1001494762
 O          1.0195534624        4.6961980910       -0.1777132851
 O         -0.2735256806        2.9694447876        0.2354554741
 C         -0.5307138442        1.6448659042        0.1694175284
 C         -1.8556114403        1.2651488930        0.3045288258
 C         -2.2286200477       -0.0746129171        0.1918403114
 N         -3.5376523621       -0.4621890316        0.3278464920
 C         -3.9676021604       -1.7922370698        0.1305190057
 C         -3.4240723557       -2.8466261871        0.8569936027
 C         -3.8540987598       -4.1418223703        0.6326487540
 C         -4.8465291766       -4.3964014347       -0.3011114492
 C         -5.4322695409       -3.3507998114       -0.9901984508
 C         -4.9998653961       -2.0520734732       -0.7689306101
 S         -5.7739594064       -0.7017399013       -1.6177387719
 C         -5.6902130408        0.4646697743       -0.2845538577
 C         -6.7284796721        1.3610167487       -0.0831709214
 C         -6.6767075248        2.2423442456        0.9806250201
 C         -5.6073737961        2.2033034516        1.8617368552
 C         -4.5729236335        1.3070099196        1.6637627254
 C         -4.5865087253        0.4543977650        0.5652399813
 C         -1.2316350454       -0.9996642614       -0.1765431463
 C          0.0810116163       -0.6223475505       -0.2778055977
 C          0.4894013835        0.6971234391       -0.0308913091
 C          1.8436426020        1.1782591708       -0.0782210935
 H          8.8823647135       -1.3097802592        1.4033169619
 H          9.5307531550       -0.3827466011        0.0479385936
 H          8.0848013686        0.1764018177        0.8949050390
 H          7.5188642666       -0.9043893464       -1.3151111451
 H          8.3076265943       -2.3817859298       -0.7745964235
 H          5.9567854151       -3.2941482956        1.6861030340
 H          7.6007638883       -3.4689144004        1.0902707285
 H          6.1760205700       -5.3511661068        0.3098195498
 H          6.7597638354       -4.4027160562       -1.0599840213
 H          5.0974767454       -4.2143992856       -0.5090882562
 H          4.0957999219       -2.6924790061        1.0775655706
 H          2.1067972568       -1.3675429478        1.0132989955
 H          6.3029065579        0.6123209035       -0.5916674517
 H         -2.5842002550        2.0435606692        0.4527285203
 H         -2.6607650135       -2.6397129332        1.5924604707
 H         -3.4159844723       -4.9530551123        1.1934029855
 H         -5.1776951141       -5.4074812587       -0.4796211676
 H         -6.2223989833       -3.5269554556       -1.7033411085
 H         -7.5636990605        1.3607763868       -0.7661320502
 H         -7.4781408128        2.9487562972        1.1302575080
 H         -5.5770300154        2.8720797984        2.7079045126
 H         -3.7441646406        1.2643390041        2.3541496651
 H         -1.5058442527       -2.0141734401       -0.4174193471
 H          0.8063673548       -1.3452809986       -0.6134635936
  63
       -106.20221335
 C          8.6449520626       -0.7810753550        0.2586228307
 C          7.6840788453       -1.5452209070       -0.6520718350
 N          6.4943669949       -1.9899226435        0.0449757251
 C          6.5605388259       -3.3135657860        0.6286483980
 C          6.0332785474       -4.3950726065       -0.3152637995
 C          5.3788106365       -1.2187848331        0.1149690719
 C          4.1660481556       -1.7043591495        0.6582683344
 C          3.0251233621       -0.9489413527        0.6599070253
 C          2.9945003026        0.3490037382        0.1254774401
 C          4.2316530710        0.8830036820       -0.2828282851
 C          5.3807095671        0.1149997168       -0.3157535521
 O          4.3612875080        2.1757415857       -0.6591106560
 C          3.3576938177        3.0982351364       -0.4769622602
 O          3.6442800224        4.2510310777       -0.6754039067
 C          2.0453043619        2.5650480666       -0.1332715303
 C          0.9547923413        3.5175076084        0.0267413253
 O          1.0250477242        4.7185041612       -0.0261735141
 O         -0.2791432107        2.9888048061        0.3328689535
 C         -0.5344914459        1.6642612635        0.2615483788
 C         -1.8631224340        1.2874665120        0.3683748679
 C         -2.2352542093       -0.0523517908        0.2594040221
 N         -3.5470544736       -0.4423011029        0.3591786331
 C         -3.9536812431       -1.7853284437        0.2053076728
 C         -3.4367053388       -2.7934061875        1.0123841231
 C         -3.8432546832       -4.1034092196        0.8364223906
 C         -4.7847616654       -4.4181363626       -0.1312319007
 C         -5.3414314656       -3.4179652597       -0.9065091748
 C         -4.9324845241       -2.1043424917       -0.7334491664
 S         -5.6637254568       -0.8099539242       -1.6991363148
 C         -5.6625523086        0.4311696477       -0.4325710598
 C         -6.7127286160        1.3322723662       -0.3491709916
 C         -6.7306570368        2.2724829720        0.6640803835
 C         -5.7220487558        2.2859294579        1.6145525866
 C         -4.6757312167        1.3848316611        1.5344042837
 C         -4.6146250662        0.4751384889        0.4845496123
 C         -1.2295665908       -0.9833553891       -0.0683942756
 C          0.0841809199       -0.6070057627       -0.1529891575
 C          0.4891189328        0.7160626517        0.0819639903
 C          1.8430286454        1.1981993403        0.0322512630
 H          8.1654410875        0.1033626827        0.6697081792
 H          8.9667674394       -1.4090521981        1.0861206838
 H          9.5222111793       -0.4731908603       -0.3036449317
 H          7.3947986548       -0.9248800450       -1.5034197080
 H          8.1885192685       -2.4295556824       -1.0517898135
 H          6.0073899090       -3.3290985930        1.5711138266
 H          7.6071434746       -3.5200110662        0.8681967430
 H          6.1093950806       -5.3705069133        0.1571447861
 H          6.6121318395       -4.4100036162       -1.2356861616
 H          4.9932359001       -4.2091302454       -0.5716640047
 H          4.1176797956       -2.6908509745        1.0880765845
 H          2.1397011574       -1.3463571928        1.1292102670
 H          6.2754509025        0.6080747681       -0.6515190006
 H         -2.5925615792        2.0692450589        0.4912017744
 H         -2.7102349573       -2.5383245567        1.7697368986
 H         -3.4260434881       -4.8790995142        1.4599463352
 H         -5.0972198791       -5.4410967183       -0.2720143217
 H         -6.0894101580       -3.6416643727       -1.6510417150
 H         -7.5028386531        1.2884997267       -1.0826076400
 H         -7.5411766325        2.9819172518        0.7218859425
 H         -5.7490319607        2.9989213591        2.4238193636
 H         -3.8966664209        1.3818712233        2.2815016094
 H         -1.4990301369       -2.0025206109       -0.2951616693
 H          0.8138708879       -1.3348748958       -0.4670045842
  63
       -106.20221135
 C          8.0483706457       -1.4263728760        1.5258128989
 C          7.8041533167       -1.4291438919        0.0165957340
 N          6.5102894574       -1.9811958931       -0.3310803092
 C          6.4897526319       -3.3943560844       -0.6476684981
 C          6.6828503535       -3.6583386486       -2.1417542874
 C          5.3845782342       -1.2221073745       -0.3294289393
 C          4.1458273616       -1.7268094661       -0.7926115900
 C          2.9984181217       -0.9840801705       -0.7336535819
 C          2.9892293318        0.3256955289       -0.2278379153
 C          4.2424200257        0.8756376598        0.1014319808
 C          5.3969509774        0.1148932770        0.0899946978
 O          4.3797564587        2.1733067835        0.4580367487
 C          3.3626842169        3.0875884387        0.3113537283
 O          3.6478256628        4.2433379606        0.4950970941
 C          2.0422046692        2.5440333141        0.0195199019
 C          0.9436582150        3.4876691952       -0.1372139425
 O          1.0101859142        4.6899342367       -0.1193829016
 O         -0.2941018481        2.9456993606       -0.4041181887
 C         -0.5441532421        1.6241534550       -0.2763131226
 C         -1.8729134181        1.2384285728       -0.3303910209
 C         -2.2368037834       -0.0957208001       -0.1441754002
 N         -3.5522237189       -0.4840071336       -0.1860439857
 C         -3.9750968628       -1.7962900434        0.1178638983
 C         -3.4904230908       -2.8960818404       -0.5823789519
 C         -3.9094000018       -4.1721577205       -0.2518925082
 C         -4.8331941450       -4.3628695802        0.7639854117
 C         -5.3631218318       -3.2735604760        1.4301802859
 C         -4.9415522260       -1.9938872194        1.1024760436
 S         -5.6469521868       -0.5906416083        1.9249294176
 C         -5.6493500416        0.4997082908        0.5265268216
 C         -6.6908848664        1.3977689519        0.3504596683
 C         -6.7066650462        2.2200532307       -0.7606979972
 C         -5.7027885902        2.1205871575       -1.7114065007
 C         -4.6650002052        1.2230710029       -1.5381163738
 C         -4.6092774404        0.4298652816       -0.3972781489
 C         -1.2190530107       -1.0079165047        0.1977787345
 C          0.0961896846       -0.6262051242        0.2165840625
 C          0.4872338846        0.6858849391       -0.0899266222
 C          1.8398866066        1.1729185958       -0.1042802699
 H          7.2985822508       -0.8267138945        2.0353623084
 H          8.0006600210       -2.4390470300        1.9200526856
 H          9.0306913159       -1.0158706010        1.7428926599
 H          7.8898294052       -0.4157832028       -0.3830784441
 H          8.5692553563       -2.0361468463       -0.4748210679
 H          5.5521704217       -3.8354116242       -0.3004627609
 H          7.2966285032       -3.8745983532       -0.0868990637
 H          6.6693027858       -4.7273407308       -2.3359977020
 H          7.6363075321       -3.2573907849       -2.4777243009
 H          5.8942358308       -3.1860487870       -2.7223201724
 H          4.0883420341       -2.7091899955       -1.2301044019
 H          2.0905677627       -1.3953429719       -1.1448251409
 H          6.2982339497        0.6119917607        0.4018652171
 H         -2.6103610831        2.0101341557       -0.4699942768
 H         -2.7805361461       -2.7395071033       -1.3811977460
 H         -3.5153008781       -5.0188374737       -0.7925592898
 H         -5.1546789255       -5.3587776884        1.0259105920
 H         -6.1008412051       -3.4006054722        2.2071841250
 H         -7.4756357790        1.4448308599        1.0893460286
 H         -7.5111331182        2.9265656541       -0.8924582560
 H         -5.7269673609        2.7422980627       -2.5928581223
 H         -3.8856689813        1.1344127874       -2.2798332450
 H         -1.4767470697       -2.0145796511        0.4850972786
 H          0.8405939198       -1.3379318558        0.5338794018
  63
       -106.20216678
 C          8.5872122834       -0.6348458714        0.7435404996
 C          7.7878005641       -1.4729428003       -0.2545505138
 N          6.5318245491       -1.9412243076        0.2949976247
 C          6.5703957659       -3.2328270264        0.9493721937
 C          6.2052537016       -4.3769672528        0.0029223594
 C          5.3957227892       -1.2019563540        0.2119754703
 C          4.1438745641       -1.7075691051        0.6349510657
 C          2.9942544534       -0.9750226012        0.5174694338
 C          2.9909844187        0.3177035703       -0.0301156099
 C          4.2484525986        0.8606995283       -0.3556015609
 C          5.4097025310        0.1161741301       -0.2642553592
 O          4.3867734922        2.1425791196       -0.7652178117
 C          3.3645909171        3.0583584859       -0.6758903137
 O          3.6461247057        4.2038248347       -0.9195017334
 C          2.0452890144        2.5268455566       -0.3574134846
 C          0.9508860413        3.4779089140       -0.2181107670
 O          1.0115654765        4.6767258356       -0.3135107132
 O         -0.2722710964        2.9514806349        0.1365842360
 C         -0.5292638989        1.6266698973        0.0757265927
 C         -1.8496520381        1.2424307694        0.2363699462
 C         -2.2219950091       -0.0976711286        0.1204527106
 N         -3.5268558520       -0.4844655457        0.2940440436
 C         -3.9826017157       -1.7992080722        0.0561869271
 C         -3.4180070958       -2.8954658562        0.6998788353
 C         -3.8755382465       -4.1729817995        0.4318616662
 C         -4.9174587933       -4.3691893791       -0.4608583517
 C         -5.5260336898       -3.2830034959       -1.0615946817
 C         -5.0658808358       -2.0020863332       -0.7972848791
 S         -5.8736591962       -0.6032262228       -1.5280093748
 C         -5.7026788304        0.4893051541       -0.1416023033
 C         -6.7186704085        1.3798634070        0.1699415791
 C         -6.5936205271        2.2039935217        1.2727899386
 C         -5.4711140140        2.1149345821        2.0814015984
 C         -4.4591253693        1.2244014505        1.7735266507
 C         -4.5498589333        0.4275780333        0.6371927429
 C         -1.2334616823       -1.0153625609       -0.2868250253
 C          0.0777159494       -0.6358124766       -0.4023190539
 C          0.4883010865        0.6802854818       -0.1430465741
 C          1.8426091984        1.1614303271       -0.1825959424
 H          8.8140632046       -1.2163036561        1.6343080599
 H          9.5221632087       -0.3136268013        0.2927480410
 H          8.0252349614        0.2448670744        1.0463387169
 H          7.5943116626       -0.8981916022       -1.1630930214
 H          8.3735426269       -2.3499173332       -0.5443674110
 H          5.9036531091       -3.2279850293        1.8154224855
 H          7.5848472814       -3.3853269530        1.3276671003
 H          6.2561058997       -5.3258712248        0.5299395846
 H          6.8956610562       -4.4093843322       -0.8366734882
 H          5.1997574160       -4.2465919017       -0.3893522153
 H          4.0718245371       -2.6905171505        1.0694229228
 H          2.0751994183       -1.3858349098        0.9027302617
 H          6.3208859235        0.6184156012       -0.5366479593
 H         -2.5779154124        2.0168381138        0.4064456132
 H         -2.6183419031       -2.7361579256        1.4079072953
 H         -3.4187869482       -5.0164991976        0.9261142491
 H         -5.2691189995       -5.3662825895       -0.6749728163
 H         -6.3557779332       -3.4132813330       -1.7386889820
 H         -7.5954953206        1.4183373861       -0.4575048204
 H         -7.3792473139        2.9040720730        1.5101524287
 H         -5.3819695288        2.7395821918        2.9566274267
 H         -3.5868034211        1.1444121930        2.4044719063
 H         -1.5116239291       -2.0254361826       -0.5408515472
 H          0.7997540278       -1.3529439508       -0.7576992277
  63
       -106.20209465
 C          8.6388684180       -0.8211228562        0.2114389816
 C          7.6610844588       -1.5542077575       -0.7068278554
 N          6.4754056184       -2.0042513302       -0.0061659834
 C          6.5304592356       -3.3466764323        0.5343274140
 C          5.9709769162       -4.3886470044       -0.4353449523
 C          5.3681372291       -1.2247110970        0.0941427176
 C          4.1580140740       -1.7097159162        0.6439430916
 C          3.0223037206       -0.9469112080        0.6678911008
 C          2.9946381779        0.3581094595        0.1506947918
 C          4.2327286771        0.8921028158       -0.2547764079
 C          5.3765311820        0.1174651780       -0.3095407265
 O          4.3682143976        2.1906057907       -0.6080750848
 C          3.3677399892        3.1137816292       -0.4124089878
 O          3.6606628710        4.2691688908       -0.5852893393
 C          2.0512495281        2.5791479509       -0.0873133662
 C          0.9603919460        3.5321812269        0.0669226819
 O          1.0324818348        4.7333467987        0.0208226520
 O         -0.2778449734        3.0035215183        0.3552168989
 C         -0.5335625782        1.6794073791        0.2783119570
 C         -1.8636912822        1.3040153459        0.3742198297
 C         -2.2356582830       -0.0356397525        0.2653546519
 N         -3.5469461737       -0.4291918213        0.3574787522
 C         -3.9409492506       -1.7791787985        0.2368115174
 C         -3.4221645886       -2.7589820411        1.0769685455
 C         -3.8179965276       -4.0764930419        0.9373299557
 C         -4.7504415584       -4.4266977400       -0.0270335966
 C         -5.3068086598       -3.4545906062       -0.8374615315
 C         -4.9079927483       -2.1334912830       -0.7012741523
 S         -5.6348239871       -0.8736381464       -1.7148733117
 C         -5.6572018662        0.4053881347       -0.4866755451
 C         -6.7141096513        1.3014246121       -0.4451388655
 C         -6.7535699041        2.2701049203        0.5402998715
 C         -5.7608677265        2.3159021910        1.5062772158
 C         -4.7077185683        1.4198198320        1.4679656537
 C         -4.6230103247        0.4828790793        0.4440712667
 C         -1.2282307914       -0.9674388399       -0.0552556395
 C          0.0858132769       -0.5917912544       -0.1343299011
 C          0.4906010954        0.7308177474        0.1043062396
 C          1.8454617272        1.2112883492        0.0650585078
 H          9.5129106716       -0.5079609046       -0.3528778877
 H          8.1723484415        0.0576988442        0.6488314391
 H          8.9634790269       -1.4719574300        1.0200915136
 H          7.3682042887       -0.9108249351       -1.5397734662
 H          8.1526344820       -2.4332173335       -1.1334738215
 H          5.9924957108       -3.3843929226        1.4850126407
 H          7.5774167797       -3.5763849039        0.7495454338
 H          4.9292696093       -4.1799059058       -0.6662343008
 H          6.0413700030       -5.3803195598        0.0031288247
 H          6.5330111592       -4.3808127865       -1.3663506940
 H          4.1076228809       -2.7013781590        1.0613839747
 H          2.1396910384       -1.3442230304        1.1424108356
 H          6.2723029001        0.6111224738       -0.6420645050
 H         -2.5929367990        2.0869321309        0.4903303992
 H         -2.7023012221       -2.4757455629        1.8306601130
 H         -3.4002842509       -4.8300055840        1.5870205828
 H         -5.0553909501       -5.4554609427       -0.1385615123
 H         -6.0461274937       -3.7063533972       -1.5816951300
 H         -7.4930193406        1.2306591382       -1.1883878482
 H         -7.5692478462        2.9755781573        0.5653127525
 H         -5.8058874468        3.0499792163        2.2957329626
 H         -3.9423628872        1.4419360458        2.2287461491
 H         -1.4974301369       -1.9867918669       -0.2819023294
 H          0.8161483210       -1.3197563559       -0.4463777367
  63
       -106.20204826
 C          8.5757736519       -0.6055087530        0.8052418547
 C          7.7977011504       -1.4594152166       -0.1962826098
 N          6.5357541716       -1.9294091275        0.3379056347
 C          6.5717026438       -3.2116083741        1.0107531683
 C          6.2279624398       -4.3714965856        0.0755296289
 C          5.3974695627       -1.1965811122        0.2307166390
 C          4.1418005127       -1.7049694559        0.6386215857
 C          2.9910630842       -0.9777609261        0.5010001828
 C          2.9904510244        0.3121698218       -0.0530764511
 C          4.2496914161        0.8567207845       -0.3684904818
 C          5.4123851703        0.1172311508       -0.2572844628
 O          4.3884548068        2.1359081093       -0.7868680901
 C          3.3635738477        3.0495923124       -0.7140207315
 O          3.6432981756        4.1932841709       -0.9680724918
 C          2.0439395555        2.5186497599       -0.3954013782
 C          0.9486861440        3.4691749141       -0.2592262860
 O          1.0073309425        4.6673106641       -0.3631768357
 O         -0.2723369294        2.9431977287        0.1035867910
 C         -0.5289766090        1.6181132252        0.0462784516
 C         -1.8476760141        1.2322154991        0.2151407079
 C         -2.2193699459       -0.1082980155        0.0996989708
 N         -3.5229186730       -0.4940297877        0.2847810682
 C         -3.9902187084       -1.8014004310        0.0293564477
 C         -3.4236313464       -2.9137369227        0.6430502506
 C         -3.8923191077       -4.1829886450        0.3554285688
 C         -4.9477659399       -4.3550620908       -0.5263182533
 C         -5.5593497808       -3.2532866778       -1.0947823535
 C         -5.0881574598       -1.9806335819       -0.8108008306
 S         -5.9021452934       -0.5628992884       -1.4971195182
 C         -5.7017905437        0.4988557031       -0.0909896626
 C         -6.7075378685        1.3867638856        0.2590630939
 C         -6.5572437189        2.1870405256        1.3762321438
 C         -5.4189933792        2.0778144040        2.1600192237
 C         -4.4171682569        1.1901308715        1.8136589419
 C         -4.5346637584        0.4162994798        0.6639681924
 C         -1.2332996625       -1.0241414483       -0.3171595306
 C          0.0773402447       -0.6436125282       -0.4370708467
 C          0.4880316521        0.6720850205       -0.1765930988
 C          1.8421042434        1.1538010390       -0.2160209005
 H          9.5149212421       -0.2815428536        0.3653440320
 H          8.0025820009        0.2727782012        1.0905827090
 H          8.7936011070       -1.1761072949        1.7052534770
 H          7.6153483363       -0.8958334712       -1.1140510769
 H          8.3933135887       -2.3358445785       -0.4669367870
 H          5.8917321235       -3.1985598329        1.8664282098
 H          7.5811741616       -3.3527489424        1.4065114928
 H          6.2761135947       -5.3121974622        0.6172763966
 H          6.9315943938       -4.4120692261       -0.7526113888
 H          5.2280684389       -4.2530334462       -0.3343443135
 H          4.0676519369       -2.6861471313        1.0766829993
 H          2.0682408180       -1.3901681109        0.8753844931
 H          6.3247525027        0.6200156040       -0.5246382955
 H         -2.5762266012        2.0050263721        0.3913791185
 H         -2.6146642152       -2.7734860871        1.3444770272
 H         -3.4340964225       -5.0389857033        0.8263174849
 H         -5.3082411388       -5.3455891973       -0.7557736134
 H         -6.4004433863       -3.3650253951       -1.7611139011
 H         -7.5957507130        1.4431597594       -0.3506853629
 H         -7.3350923921        2.8850331726        1.6435275090
 H         -5.3098383566        2.6839411761        3.0459322575
 H         -3.5317487473        1.0947349966        2.4239477863
 H         -1.5123909280       -2.0330727137       -0.5744610521
 H          0.7988142542       -1.3596120687       -0.7960984644
  63
       -106.20130002
 C          8.5493410264       -0.8762161545        0.3391554291
 C          7.6923629409       -1.4210036893       -0.8035551756
 N          6.4382233111       -1.9789219522       -0.3404781221
 C          6.4499415627       -3.3937346155       -0.0306087940
 C          6.0176053162       -4.2559292132       -1.2172690855
 C          5.3223209149       -1.2160309403       -0.2118320619
 C          4.0633376254       -1.7809124174        0.1002247072
 C          2.9301432573       -1.0177146334        0.1735091270
 C          2.9535661886        0.3677670882       -0.0527057711
 C          4.2230299958        0.9477046906       -0.2381306334
 C          5.3665227530        0.1784546840       -0.3462490221
 O          4.3898903922        2.2883420441       -0.3144706459
 C          3.3880958816        3.1726761664        0.0106020089
 O          3.6941410926        4.3363831263        0.0667403327
 C          2.0556906906        2.6068638738        0.1801154330
 C          0.9798426030        3.5120542645        0.5598998266
 O          1.0699230098        4.6882646879        0.8018399295
 O         -0.2633334532        2.9433846596        0.7303332060
 C         -0.5475284953        1.6975349328        0.2904831909
 C         -1.8857098331        1.3403211374        0.2702304593
 C         -2.2890396836        0.1162083326       -0.2629561466
 N         -3.6096895316       -0.2572457848       -0.2817588301
 C         -4.6272799281        0.4729053911        0.3743100400
 C         -4.9081360105        1.7948692907        0.0480747058
 C         -5.8944428196        2.4849645660        0.7298243670
 C         -6.6290559165        1.8563345066        1.7225886644
 C         -6.4035881815        0.5229550254        2.0099413379
 C         -5.4120096743       -0.1677559650        1.3309841696
 S         -5.1577043151       -1.8937533078        1.6514164258
 C         -4.7757433682       -2.3643372176       -0.0150743323
 C         -5.2131733424       -3.5810779816       -0.5158900763
 C         -4.9367709656       -3.9220291419       -1.8268896611
 C         -4.2522386816       -3.0367188504       -2.6453484665
 C         -3.8184401687       -1.8213899734       -2.1480691323
 C         -4.0466445757       -1.4890661597       -0.8169435109
 C         -1.2898303921       -0.7402912689       -0.7657671484
 C          0.0356419473       -0.4013989564       -0.6967952567
 C          0.4586678388        0.8090208391       -0.1285683857
 C          1.8229048901        1.2472800619       -0.0041149057
 H          8.0287460950       -0.0817068497        0.8673387909
 H          8.7796294326       -1.6642674487        1.0526252455
 H          9.4823993013       -0.4814737193       -0.0535015275
 H          7.4907396246       -0.6345705289       -1.5344878356
 H          8.2398091531       -2.2134155599       -1.3220210407
 H          5.8090886825       -3.5873540887        0.8333958642
 H          7.4690460161       -3.6625940776        0.2599355270
 H          5.0023291675       -4.0139501862       -1.5203350092
 H          6.0617110885       -5.3075299803       -0.9477418599
 H          6.6745481373       -4.0881123729       -2.0671672962
 H          3.9724063326       -2.8366195032        0.2930148913
 H          2.0053909950       -1.4882738775        0.4651991548
 H          6.2887066164        0.7114995721       -0.4959641018
 H         -2.5923573200        2.0457660423        0.6707996301
 H         -4.3486915162        2.2757701064       -0.7398961557
 H         -6.0903656171        3.5163376329        0.4808860927
 H         -7.3917447765        2.3982806508        2.2594305168
 H         -6.9859658871        0.0081027871        2.7580578710
 H         -5.7632192565       -4.2484045030        0.1290006387
 H         -5.2706156735       -4.8717489234       -2.2147097444
 H         -4.0594357019       -3.2895965232       -3.6764075067
 H         -3.2943881265       -1.1213590649       -2.7818741276
 H         -1.5643978484       -1.6884579197       -1.1987512855
 H          0.7638853693       -1.0626658427       -1.1364558955
  63
       -106.20120394
 C          6.6939495381       -3.4216581130        2.1343052007
 C          6.4268043064       -3.4146494653        0.6279978608
 N          6.4425638384       -2.0898618498        0.0432045419
 C          7.6991151131       -1.6154687960       -0.5010277982
 C          8.4727098981       -0.7079618569        0.4564103534
 C          5.3479848028       -1.2833823417        0.0802816976
 C          4.1410065341       -1.6878176048        0.6994886638
 C          3.0080845006       -0.9227462422        0.6394697032
 C          2.9811994540        0.3113576586       -0.0290251851
 C          4.2179767819        0.7846710858       -0.5057662516
 C          5.3579523050        0.0022364580       -0.4781511046
 O          4.3563424610        2.0296158916       -1.0163152573
 C          3.3622058424        2.9757085502       -0.9274350786
 O          3.6582188994        4.0986541356       -1.2469630345
 C          2.0475586609        2.4946531135       -0.5208916801
 C          0.9646181195        3.4675747772       -0.4664914615
 O          1.0420993298        4.6533702766       -0.6617514122
 O         -0.2708175755        2.9874183785       -0.0935690447
 C         -0.5356462003        1.6657529449       -0.0052985754
 C         -1.8652577514        1.3146906538        0.1618248099
 C         -2.2463776042       -0.0256917506        0.2211870053
 N         -3.5572862224       -0.3944139179        0.3888161538
 C         -4.6240084356        0.5324047118        0.4057490020
 C         -4.6705637872        1.5774784280        1.3218100400
 C         -5.7167485863        2.4819126855        1.2935576639
 C         -6.7400332133        2.3388622915        0.3699108289
 C         -6.7372120821        1.2674406910       -0.5035788886
 C         -5.6872632788        0.3626087818       -0.4786920439
 S         -5.7099140686       -1.0433021292       -1.5592999172
 C         -4.9607012136       -2.1911476911       -0.4350756902
 C         -5.3719663764       -3.5152818454       -0.4137534529
 C         -4.7989043234       -4.3978351774        0.4828708742
 C         -3.8376039301       -3.9525458528        1.3770648215
 C         -3.4290858222       -2.6316197942        1.3595163929
 C         -3.9642654492       -1.7453471219        0.4304706897
 C         -1.2511846944       -0.9965933076       -0.0090556501
 C          0.0630651088       -0.6432700001       -0.1574037775
 C          0.4795932648        0.6950570921       -0.0837842910
 C          1.8361183801        1.1570264461       -0.2013345973
 H          7.7051910501       -3.0861220486        2.3475474979
 H          6.0001090271       -2.7649668573        2.6533429812
 H          6.5787513891       -4.4301496890        2.5228466905
 H          7.1925176135       -4.0121109102        0.1258388251
 H          5.4636938764       -3.8873401137        0.4148800221
 H          7.5054034879       -1.0886834906       -1.4401740904
 H          8.3114068452       -2.4879671478       -0.7415629103
 H          8.7760090051       -1.2530823455        1.3461906583
 H          7.8638355809        0.1375296874        0.7654648230
 H          9.3648717914       -0.3319771030       -0.0371852741
 H          4.0931775255       -2.6100730108        1.2529714140
 H          2.1301902196       -1.2528789200        1.1709810926
 H          6.2462821583        0.4462504515       -0.8898924427
 H         -2.5880744661        2.1111973274        0.1990218178
 H         -3.8814019231        1.6759150704        2.0515264267
 H         -5.7322290835        3.2991602874        1.9978017477
 H         -7.5505483373        3.0501585292        0.3423352000
 H         -7.5392373758        1.1229237525       -1.2106413735
 H         -6.1345851409       -3.8398617316       -1.1043506062
 H         -5.1132698151       -5.4297404856        0.4934677952
 H         -3.4064233064       -4.6340225347        2.0940392962
 H         -2.6865346081       -2.2743842532        2.0577154042
 H         -1.5304723180       -2.0333003428       -0.1090228632
 H          0.7830805713       -1.4083045463       -0.3961590223
  63
       -106.20029954
 C          7.9124755216       -1.4137451713       -1.5217888901
 C          7.7854038098       -1.3735475394        0.0014318445
 N          6.5170363313       -1.8804127236        0.4864352623
 C          6.4743253651       -3.2594613789        0.9282691644
 C          5.9754435949       -4.2281137302       -0.1452948866
 C          5.3833306538       -1.1343657406        0.3846422921
 C          4.1240841453       -1.6267270957        0.8025870053
 C          2.9790862191       -0.8892066622        0.6698755670
 C          2.9871361385        0.4002035712        0.1149678442
 C          4.2535099818        0.9416718734       -0.1743820024
 C          5.4083532726        0.1868419917       -0.0821473218
 O          4.4064792203        2.2275059370       -0.5667691182
 C          3.3859213034        3.1452314939       -0.4821028621
 O          3.6792579892        4.2965899242       -0.6800403778
 C          2.0534102240        2.6080396544       -0.2368324035
 C          0.9520349582        3.5565165142       -0.1429750248
 O          1.0226126478        4.7581864640       -0.1769290584
 O         -0.2980461479        3.0209308084        0.0721460867
 C         -0.5448714954        1.6987743465       -0.0575749179
 C         -1.8770048144        1.3213573831       -0.0781833504
 C         -2.2400247258       -0.0085756876       -0.2920940171
 N         -3.5576858603       -0.3907460082       -0.3039367731
 C         -4.6140279786        0.5059249657       -0.0229664408
 C         -4.8318829208        1.6392226948       -0.7982721845
 C         -5.8632131441        2.5064308823       -0.4864714330
 C         -6.7010319902        2.2391968673        0.5849899970
 C         -6.5295197676        1.0855208214        1.3272685677
 C         -5.4939226716        0.2175293959        1.0175222117
 S         -5.2950979621       -1.2916682192        1.9279354905
 C         -4.7749573933       -2.2961703799        0.5621019792
 C         -5.1850798848       -3.6176803245        0.4739802464
 C         -4.8088922019       -4.3812709550       -0.6154118329
 C         -4.0549522265       -3.8158467633       -1.6320620893
 C         -3.6471257883       -2.4968499616       -1.5466805228
 C         -3.9705406094       -1.7359639583       -0.4284978275
 C         -1.2061983193       -0.9474135068       -0.4747851058
 C          0.1102876320       -0.5725361966       -0.4180608134
 C          0.4915816187        0.7539747488       -0.1675984519
 C          1.8432532628        1.2398402001       -0.0923545625
 H          7.8929489556       -2.4382933852       -1.8834325933
 H          7.0973457208       -0.8691746444       -1.9910043471
 H          8.8527901994       -0.9602337567       -1.8230087165
 H          8.5800155607       -1.9782450502        0.4447591593
 H          7.9237228731       -0.3497930399        0.3603812220
 H          5.8451167508       -3.3339432239        1.8204240107
 H          7.4851389111       -3.5463918746        1.2279776183
 H          5.9039753894       -5.2304609488        0.2689463163
 H          6.6602124281       -4.2526272382       -0.9887283281
 H          4.9955108661       -3.9291350010       -0.5092372089
 H          4.0414529941       -2.6001150895        1.2555108946
 H          2.0567064259       -1.2907589493        1.0568817310
 H          6.3211978601        0.6841431195       -0.3567623990
 H         -2.6129919372        2.0922925224        0.0705285956
 H         -4.1846017376        1.8352753568       -1.6396692533
 H         -6.0124952090        3.3921085808       -1.0843106281
 H         -7.4996853756        2.9209025969        0.8322304460
 H         -7.1878029819        0.8487931719        2.1486544018
 H         -5.7938585385       -4.0330654876        1.2619134911
 H         -5.1212405075       -5.4118672665       -0.6801764538
 H         -3.7867997751       -4.4010259529       -2.4981361882
 H         -3.0736854280       -2.0456708450       -2.3428894465
 H         -1.4460701403       -1.9834170016       -0.6499978863
 H          0.8673755796       -1.3113488327       -0.6217101174
