114
 energy: -174.647062798400 gnorm: 0.000056777577 xtb: 6.7.1 (edcfbbe)
C           11.07561888780030        0.34911951500300        0.18954951444289
C            9.58666588713052        0.16752919097504        0.13479333250778
C            8.93880978713126       -0.00612443660153       -1.09212921143374
C            9.68565189016176       -0.09429633612770       -2.36537644056053
C            9.44548252782265        0.83005010703135       -3.37749900685422
C           10.11951520527799        0.74196099553071       -4.58268873352250
C           11.03255619871491       -0.27759146849247       -4.79562873961069
C           11.26852020361274       -1.20881078343024       -3.79766374505294
C           10.60183521881815       -1.11723934651149       -2.58904992187394
C            7.55223901301332       -0.08741847995959       -1.14809855079166
C            6.80657364248631       -0.01793080130109        0.01355820137035
N            5.37401076499069       -0.10193465001666       -0.04861675903122
C            4.83091983867561       -1.34933440530030       -0.31253971580518
O            5.55530615497301       -2.31819325010221       -0.46723390784627
C            3.36685792568262       -1.41782176092717       -0.38079059377008
C            2.75576234148372       -2.62260000743699       -0.67098553431662
C            1.36660773535279       -2.69907440724049       -0.76520609712971
C            0.59216542389682       -1.58807087652741       -0.53962115737383
C            1.17278396020848       -0.34854636017299       -0.20132413984143
C            0.40258554662784        0.82513324279401        0.04365677416513
C           -1.06136156540017        0.78372703035361        0.09123360666138
C           -1.73479006294626       -0.13305853555878        0.90161574813108
C           -3.11052068644752       -0.14761123396001        0.96256008247555
C           -3.86844569272027        0.74292192464738        0.19505145127155
N           -5.25735632292861        0.70546884711741        0.23274604265964
C           -6.00789188627093        1.87722963001145        0.06952054723652
C           -7.19996130990801        1.85712714712922       -0.65432633961082
C           -7.94264802295818        3.00899100417315       -0.80826059888401
C           -7.51778491151146        4.21818432893833       -0.25904563007941
C           -8.30478343145737        5.44601567019452       -0.44074094915829
C           -9.69564733193948        5.41991917630144       -0.35414983692149
C          -10.43472873054253        6.57522667731633       -0.52954652837428
C           -9.79848149219251        7.77582825181494       -0.79939148377261
C           -8.41658770815686        7.81389298068408       -0.88895927999162
C           -7.67563545727459        6.66050503105152       -0.70900856422417
C           -6.32484806623724        4.23110416313185        0.46280483093148
C           -5.58394641728586        3.08039875256661        0.63395735710096
C           -5.92228426591747       -0.51544070047312        0.42867009158422
C           -7.05752660817651       -0.57261786475440        1.23860984334572
C           -7.72480126070552       -1.76630486827123        1.44254441041423
C           -7.24517237021213       -2.91758396483991        0.83741669776059
C           -6.10437161253439       -2.86377548621346        0.02144816168972
C           -5.44753774897650       -1.67533255874476       -0.19146481101415
C           -5.77148152773697       -4.23283246376600       -0.52811047727975
C           -5.84463547905834       -4.24901904923592       -2.05893531375319
C           -4.38850206016334       -4.69280347914462       -0.05332949872775
C           -6.87013805776865       -5.07625403642518        0.08132120355972
C           -7.09956568593556       -6.42833772839136       -0.05625902282498
C           -8.18323064774931       -6.99573794603490        0.60223210345609
C           -9.02276789739959       -6.21941095447352        1.38643903213033
C           -8.80058548393983       -4.85908714563578        1.52979607211130
C           -7.72030481963428       -4.29005544908812        0.87445984408697
C           -3.19578031592883        1.66680216315073       -0.61101229175928
C           -1.81908423049109        1.69439170228044       -0.64678519083109
C            1.05204228122402        2.02967221095181        0.25196279129008
C            2.43862645501497        2.11001376533756        0.28495368824987
C            3.21306227709094        0.97745658070558        0.10258035794082
C            2.58945388578389       -0.26136929019254       -0.15504722792912
C            4.67114612817752        1.07727742740627        0.16123334705010
O            5.26839688385816        2.12044599898678        0.37098725358311
C            7.43371039542954        0.13704118162205        1.23518627074158
C            8.81924777220132        0.22995811653225        1.30198578764150
C            9.43159644749452        0.40945975870459        2.63552376664850
C           10.33570826986607       -0.51678475030143        3.14596715392208
C           10.87484489543392       -0.34663368950645        4.40862262373026
C           10.52223297912896        0.75255231689848        5.17431522073182
C            9.61805604680671        1.67624468112194        4.67609026392610
C            9.07082176735645        1.50306891733343        3.41724283215941
H           11.35104890541964        0.97473250823590        1.03531702501188
H           11.57957337592432       -0.60956135133394        0.30346237554542
H           11.43558923206053        0.80860551394085       -0.72806122030803
H            8.73452250308553        1.62674874410328       -3.20777896059173
H            9.92999860532565        1.46994288014135       -5.35858559294942
H           11.55614069755047       -0.34784216097545       -5.73790847573775
H           11.97396430379168       -2.01059003220222       -3.96212031482256
H           10.77483944893780       -1.85181923896846       -1.81658491453717
H            7.05823621376551       -0.21749180720090       -2.10037064071935
H            3.37691259530064       -3.49000190692109       -0.83853009953382
H            0.90393397373403       -3.63939877986766       -1.02305894414015
H           -0.48031713944009       -1.65180559819032       -0.63673833403419
H           -1.16767407118698       -0.81160545608955        1.52172396578058
H           -3.61338054487697       -0.84712010978534        1.61357781438084
H           -7.53567584150704        0.93169792945149       -1.09934029185892
H           -8.85225235146395        2.97896754254953       -1.38997729075054
H          -10.19781925324017        4.49016854991011       -0.12801919083522
H          -11.51232844457464        6.54043543594956       -0.45386903516624
H          -10.37689839649259        8.67756003969132       -0.93892539116539
H           -7.91475193629816        8.74696300994451       -1.10296644640223
H           -6.59928001966430        6.69457883375325       -0.79779343887394
H           -5.98976184355849        5.14994063345138        0.92142001156647
H           -4.67257956299236        3.10401424927440        1.21361046460655
H           -7.41078534090362        0.33172613917109        1.71237487381679
H           -8.60000113209394       -1.79614791496431        2.07429330817852
H           -4.57745041541163       -1.62184908605684       -0.82896919799399
H           -5.09343431218949       -3.58494484352368       -2.47991994717763
H           -6.82689614388091       -3.91970399687694       -2.39236123771891
H           -5.67046518465691       -5.25462346925893       -2.43413123255812
H           -4.19177416636643       -5.70651025745848       -0.39394691652318
H           -3.61693679467503       -4.03593445538899       -0.44799367385475
H           -4.33875046518504       -4.67639916982067        1.03375958468239
H           -6.45263907158020       -7.04425875176905       -0.66428492885206
H           -8.37379776017327       -8.05484773307511        0.50318398708138
H           -9.85982325640748       -6.68144489416755        1.89048757679885
H           -9.45677751177518       -4.25707650335300        2.14134527093800
H           -3.76462475075826        2.35616655858028       -1.21691971408716
H           -1.31704459602378        2.40359302185798       -1.28807165277721
H            0.46734691183615        2.92047978917144        0.42615139758590
H            2.93610723020394        3.05090152622139        0.46899209861955
H            6.84628989371525        0.18658728888779        2.14088184878137
H           10.60059353273014       -1.38129517064249        2.55554717001819
H           11.57239293610777       -1.07481667542163        4.79691099996569
H           10.94763522619352        0.88741907096280        6.15812667413165
H            9.33649440332381        2.53372343105470        5.27044270780061
H            8.36607184814391        2.22245474435946        3.02381392197464
