  114
       -174.50503398
 C         10.8105095779        0.5310467384        0.5716838368
 C          9.3542476733        0.2808667405        0.3056245530
 C          8.7058070079        0.9061313351       -0.7638704946
 C          9.4197311329        1.7737110086       -1.7196993983
 C          8.9561460737        3.0676007942       -1.9436296532
 C          9.5976492420        3.8964724708       -2.8453162761
 C         10.7025613628        3.4406435128       -3.5453727613
 C         11.1603833386        2.1497681286       -3.3411521578
 C         10.5255991334        1.3219541584       -2.4332059199
 C          7.3372907195        0.7432618150       -0.9447970665
 C          6.6035024144       -0.0321130411       -0.0659273650
 N          5.1927572225       -0.1613089326       -0.2364315644
 C          4.6911267087       -1.4362762334       -0.4598545823
 O          5.4459874359       -2.3976945551       -0.5512435257
 C          3.2443709363       -1.5434584205       -0.6018012293
 C          2.6748452587       -2.7977072950       -0.8705802795
 C          1.3180420294       -2.9040907268       -1.0627084350
 C          0.4937815481       -1.7843590422       -0.9530298072
 C          1.0107401895       -0.5312180368       -0.6132033577
 C          0.1950847339        0.6393681293       -0.4673289900
 C         -1.2291374349        0.5787951441       -0.3236101675
 C         -1.8651433074       -0.4665206510        0.3841991534
 C         -3.2233507432       -0.5021464269        0.5477851597
 C         -4.0378113464        0.5080363915        0.0083558361
 N         -5.4160161120        0.4750097079        0.1669297510
 C         -6.1208071358        1.6714421066        0.3209310326
 C         -7.3763072583        1.8405642231       -0.2672697623
 C         -8.0579547751        3.0287011444       -0.1200650617
 C         -7.5136316797        4.0874549323        0.6094119364
 C         -8.2366818821        5.3556751691        0.7549749899
 C         -7.5554311110        6.5708593528        0.6961321699
 C         -8.2359111010        7.7660704097        0.8307886661
 C         -9.6060968755        7.7686503601        1.0339369127
 C        -10.2930969946        6.5675112437        1.0969842097
 C         -9.6163676844        5.3708757346        0.9548913346
 C         -6.2597981291        3.9085009856        1.1970545486
 C         -5.5734060881        2.7224891245        1.0607997775
 C         -6.0917307797       -0.7437869053        0.1806679058
 C         -7.2107296903       -0.9213903617        1.0029457531
 C         -7.8819205234       -2.1265723138        1.0353368449
 C         -7.4293320811       -3.1728788991        0.2426469045
 C         -6.3053029839       -2.9986274188       -0.5843263662
 C         -5.6412361697       -1.7991120358       -0.6250694339
 C         -5.9986300989       -4.2677790712       -1.3455739197
 C         -6.1059673623       -4.0486508959       -2.8579522766
 C         -4.6098514308       -4.8004278414       -0.9769539340
 C         -7.0906337284       -5.1880592980       -0.8466353827
 C         -7.3350244092       -6.5015320947       -1.1832945438
 C         -8.4099304664       -7.1546978248       -0.5939465402
 C         -9.2269269299       -6.5020890575        0.3177248404
 C         -8.9894575360       -5.1827811505        0.6633398549
 C         -7.9164673203       -4.5274449511        0.0777817657
 C         -3.4209053763        1.5631003806       -0.6834868091
 C         -2.0611375924        1.6018388916       -0.8331894742
 C          0.8366460684        1.9036700994       -0.3771639109
 C          2.1905742108        2.0157186742       -0.2778391332
 C          3.0117033930        0.8637104151       -0.3137207864
 C          2.4249135657       -0.4037753530       -0.4960443159
 C          4.4455360640        1.0127173784       -0.1741813672
 O          4.9933101922        2.0940747832        0.0223462503
 C          7.2353444329       -0.6623122795        0.9918075093
 C          8.6055922757       -0.5208751851        1.1720241783
 C          9.2234508540       -1.2157607074        2.3189028983
 C         10.2570193264       -2.1290221481        2.1375809017
 C         10.8077643012       -2.7898893756        3.2202221808
 C         10.3368175590       -2.5445465966        4.4991744366
 C          9.3037952845       -1.6421350907        4.6890194263
 C          8.7470880567       -0.9864360343        3.6061009416
 H         11.4331109010       -0.2165268368        0.0816121408
 H         11.1024608355        1.5085790771        0.1956055991
 H         11.0128683137        0.4831598609        1.6391946678
 H          8.0958698798        3.4189465056       -1.3932830667
 H          9.2335239850        4.9010847504       -3.0046539656
 H         11.2026154084        4.0877913522       -4.2508543037
 H         12.0156030162        1.7862080818       -3.8924020208
 H         10.8738173784        0.3102177006       -2.2894229468
 H          6.8463924117        1.2300623104       -1.7722847081
 H          3.3310436249       -3.6506356115       -0.9401739202
 H          0.8789409861       -3.8609319135       -1.3045836069
 H         -0.5589331727       -1.8851270674       -1.1684122767
 H         -1.2545966369       -1.2160837659        0.8634236023
 H         -3.6796495442       -1.2904644087        1.1288502007
 H         -7.7989381092        1.0391422331       -0.8558172705
 H         -9.0148212225        3.1524597279       -0.6048365475
 H         -6.4895504533        6.5767842701        0.5188338349
 H         -7.6954234027        8.6996790443        0.7765895859
 H        -10.1360459928        8.7028882300        1.1428815707
 H        -11.3606741107        6.5635956439        1.2599275442
 H        -10.1554875122        4.4371198892        1.0247415407
 H         -5.8324079459        4.7009144606        1.7930476552
 H         -4.6144327486        2.5896003813        1.5400134271
 H         -7.5333557006       -0.1049866885        1.6324826856
 H         -8.7378988128       -2.2525045143        1.6803676067
 H         -4.7907589649       -1.6491945268       -1.2729373065
 H         -5.3577454326       -3.3328397773       -3.1910809703
 H         -7.0923469718       -3.6674501411       -3.1150172616
 H         -5.9483430608       -4.9860118524       -3.3860845287
 H         -4.4242862709       -5.7479579685       -1.4767043603
 H         -3.8404091235       -4.0926370464       -1.2777418762
 H         -4.5384387420       -4.9561117452        0.0976951185
 H         -6.7063517727       -7.0205534831       -1.8919599080
 H         -8.6121190722       -8.1842655278       -0.8491729643
 H        -10.0570959628       -7.0306075414        0.7622572794
 H         -9.6252268554       -4.6755280436        1.3734875397
 H         -4.0371722783        2.3325399944       -1.1257756145
 H         -1.6194781847        2.4014106261       -1.4073263456
 H          0.2249007788        2.7898022363       -0.3001912987
 H          2.6738865877        2.9722137440       -0.1571016114
 H          6.6665167941       -1.2762905762        1.6720779997
 H         10.6142825151       -2.3335950145        1.1396109087
 H         11.6067323975       -3.5005649931        3.0658316878
 H         10.7711714148       -3.0570999030        5.3447478507
 H          8.9296632686       -1.4498302342        5.6842348993
 H          7.9441208341       -0.2783011416        3.7524632669
