114
 energy: -174.647044971941 gnorm: 0.000114531683 xtb: 6.7.1 (edcfbbe)
C           10.91209661768415        0.32379066076139        0.27931999678689
C            9.41625285295733        0.27615281824253        0.16580621583955
C            8.79879116896430       -0.06510989697846       -1.04139899409775
C            9.57168670049979       -0.33718417327741       -2.27141149690512
C           10.41124410170429        0.62374011229183       -2.82633983983449
C           11.10327911350544        0.35868125528916       -3.99460248701277
C           10.96914133023708       -0.86971809743912       -4.62049043290551
C           10.13119981385477       -1.83005635372308       -4.07771500202196
C            9.43208561417044       -1.56419144771890       -2.91384427321252
C            7.41413541279087       -0.17320013517566       -1.11237235612620
C            6.64066213437717        0.05262059874090        0.01021453213103
N            5.21211935898629       -0.07077710457248       -0.06834743550360
C            4.70124303757219       -1.35139684357111       -0.20848784466643
O            5.44873802307356       -2.31466459949474       -0.24611391464906
C            3.24079234006607       -1.46225730558818       -0.29466868566081
C            2.66306758535129       -2.70525942583402       -0.46900456346511
C            1.27845229971726       -2.82410559221501       -0.58202822914881
C            0.47462185205859       -1.71521766527267       -0.48370146733272
C            1.01912485638803       -0.43449039627644       -0.25746041193542
C            0.21800364917494        0.73841649346878       -0.13373477832949
C           -1.24365956131665        0.66910293868465       -0.07558396890532
C           -1.89419872925616       -0.21327647856100        0.79078494605461
C           -3.26883830144798       -0.25074278559349        0.86362930161333
C           -4.04868652140817        0.58858161931226        0.06170020718084
N           -5.43713270298107        0.53344618582019        0.11881913484054
C           -6.20106268275602        1.69634133706165       -0.04111964548023
C           -7.41237114313552        1.65920590431186       -0.73161626758423
C           -8.16950915351540        2.80313476463178       -0.87467155819158
C           -7.74087427737937        4.02109312511618       -0.34796956891904
C           -8.54639033527227        5.23960143738089       -0.51018317740279
C           -9.93401770783019        5.19852429768462       -0.38452946036847
C          -10.69022294168421        6.34605132710882       -0.53649829559183
C          -10.07501171550080        7.55399377896191       -0.82185731201589
C           -8.69676870194508        7.60689271752162       -0.95128909401922
C           -7.93862528713562        6.46125819482313       -0.79509677909120
C           -6.52669218208407        4.05158852784345        0.33710178729998
C           -5.77023476487932        2.90947778614227        0.49634224244824
C           -6.07892972524716       -0.69300516937229        0.34886980684740
C           -7.20606946983275       -0.75428070419775        1.16981058490580
C           -7.84883988972776       -1.95576353499950        1.40438941721212
C           -7.35244206042110       -3.11050160576355        0.81971580254451
C           -6.21864527423535       -3.05292224368161       -0.00569770854834
C           -5.58617309915169       -1.85723363324658       -0.24904920899660
C           -5.86319139189745       -4.42721476364554       -0.52739838457437
C           -5.94414169665562       -4.47914093869745       -2.05702677543442
C           -4.46875356956553       -4.84967670594078       -0.05120777408231
C           -6.94199098663800       -5.27763728735605        0.10736903874397
C           -7.14727873194264       -6.63633519394446        0.00013203097657
C           -8.21618362497953       -7.20933013392632        0.67768686625124
C           -9.06511821718163       -6.43190986993483        1.45062324941749
C           -8.86717360301883       -5.06498562610829        1.56351800718006
C           -7.80156165329362       -4.49038529072801        0.88930136455834
C           -3.40051668017541        1.48130081584988       -0.79755515784970
C           -2.02511758238466        1.52546740441241       -0.85407265891029
C            0.83818687191570        1.97359662859855       -0.04627952233832
C            2.22174887784502        2.09158853661022       -0.01689621700783
C            3.02458233040311        0.96542523817200       -0.07191877796005
C            2.43283219644865       -0.30827450672662       -0.20275785532517
C            4.47880805742462        1.10773489017778       -0.00960947288083
O            5.04803507736161        2.18300296485430        0.08029103479278
C            7.23717999628838        0.39458451249353        1.20969022955073
C            8.61892598562629        0.51798245092809        1.28857039464727
C            9.20617834293150        0.89377324861422        2.59339754725826
C            9.03438438561198        0.06492341747252        3.69754290544038
C            9.56109701211863        0.41733616321415        4.92764007288499
C           10.25284443890550        1.60855097673904        5.07198036292105
C           10.41638389277296        2.44567966654891        3.98045381693024
C            9.89922205958312        2.09007550723558        2.74761284360257
H           11.28121804493982        1.33443430733196        0.11041219403515
H           11.22498040164549        0.01814465293044        1.27523812526262
H           11.37227772702908       -0.33034903431984       -0.45714740218863
H           10.50595734829735        1.58680974564186       -2.34725651144714
H           11.74902763888761        1.11399663025025       -4.41884129839495
H           11.51383337544494       -1.07735201930602       -5.53003456799976
H           10.02027931487964       -2.78908658284864       -4.56322356608862
H            8.77952741193994       -2.31226239241331       -2.48536728192004
H            6.94232493144479       -0.43459652438376       -2.04880346030776
H            3.30641632489945       -3.57023718053570       -0.53413053746982
H            0.84213142726218       -3.79601783959249       -0.75441368578747
H           -0.59330004797565       -1.81604844600782       -0.59709791085647
H           -1.31033133782765       -0.84346688275457        1.44527697433687
H           -3.75445062143059       -0.92526555538002        1.55308144347384
H           -7.75274747382566        0.72667821359359       -1.15782592136865
H           -9.09527150338482        2.75923699200652       -1.42940517406583
H          -10.41989283823265        4.26346410783624       -0.14520085849081
H          -11.76476442139122        6.29937354743065       -0.42987217188191
H          -10.66673222631972        8.44984179892650       -0.94222249842494
H           -8.21121716196241        8.54559466900401       -1.17782873175642
H           -6.86575200617711        6.50747916992216       -0.91497837217390
H           -6.18655406805326        4.97738693093414        0.77753108758270
H           -4.84193782124526        2.94716856636730        1.04770749851521
H           -7.57249450047627        0.15288952358553        1.62786343523636
H           -8.71810055861564       -1.98859897103275        2.04415258357782
H           -4.72169806786470       -1.80099249344058       -0.89391418842083
H           -5.21126028536868       -3.80688082756413       -2.49690085361335
H           -6.93564386025554       -4.18079966630645       -2.39223526809082
H           -5.74788185387763       -5.48853763119200       -2.41061296457133
H           -4.25372147344223       -5.86625554373455       -0.37168565849049
H           -3.71297387210339       -4.18589809376402       -0.46444044746844
H           -4.41324341887350       -4.80922687604241        1.03495430195777
H           -6.49292669116466       -7.25319360560896       -0.59893673237955
H           -8.38766871184070       -8.27365793384593        0.60253101312616
H           -9.89046562373368       -6.89823604784042        1.96981101979851
H           -9.53061841859964       -4.46208541399964        2.16631836574617
H           -3.98825039797739        2.13193866921427       -1.42792302718210
H           -1.54273221772660        2.20507612306538       -1.54076494410182
H            0.23217463069495        2.86314056387011        0.03714553623177
H            2.69528934979449        3.05840829479561        0.07015752722384
H            6.62868716820330        0.57853790913240        2.08359579395360
H            8.49454356567489       -0.86455974903866        3.58136043884235
H            9.42800393989111       -0.23821370968951        5.77636908117972
H           10.66093538807216        1.88485920846276        6.03324984538726
H           10.94775302762211        3.38001169342670        4.09051286970342
H           10.01601526557705        2.74839529041417        1.89941720374941
