114
 energy: -174.587586074695 gnorm: 0.000132769156 xtb: 6.7.1 (edcfbbe)
C           10.87392809255251        0.34736954695025        0.27982565893628
C            9.37700786833496        0.29053903598896        0.17159850877274
C            8.75872575749519       -0.07875358967148       -1.02653040856481
C            9.52939070727924       -0.36892920564968       -2.25381920044271
C           10.35759192236464        0.58814804993235       -2.83210534067278
C           11.04504808666889        0.30719975850979       -3.99935800767576
C           10.91783257465432       -0.93368913433843       -4.60149124813596
C           10.09133194883913       -1.89060710608825       -4.03567574806478
C            9.39708770262913       -1.60883693207090       -2.87262777860811
C            7.37491941205537       -0.19787007982584       -1.09099026863402
C            6.59938805756905        0.04792992923293        0.02639177985686
N            5.17598590065932       -0.08806767485660       -0.04944607756883
C            4.66903750803598       -1.37815622213797       -0.04655243291272
O            5.43633044605915       -2.34151204960033        0.03803522033907
C            3.22912425900083       -1.50140354149604       -0.14554271424709
C            2.64997935524580       -2.77892345699728       -0.19318504563156
C            1.28825435053371       -2.90748684302047       -0.34598826549202
C            0.47223477812097       -1.78313704024450       -0.40812711219405
C            0.99916248319477       -0.49020478671669       -0.28990042836308
C            0.18972523808495        0.69065303456885       -0.32796499816390
C           -1.24606634720922        0.64939682791180       -0.21162903379268
C           -1.89331526198581       -0.23854908753762        0.67342062448598
C           -3.25815637034977       -0.27066146292387        0.78557177931938
C           -4.06068782255354        0.58670650747494        0.01311988071854
N           -5.44389478746186        0.53054353135663        0.10068780864257
C           -6.19875150265090        1.69665730345898       -0.02941513990197
C           -7.42686277873656        1.67606521060520       -0.69838050828077
C           -8.16600325531543        2.83072055483650       -0.82702050548913
C           -7.71029541069560        4.04216677685080       -0.29975498101931
C           -8.49987528663365        5.26957674872647       -0.44513356486509
C           -9.88980471045379        5.24039968356807       -0.32777046650194
C          -10.63164903662638        6.39870736322318       -0.46351574490539
C          -10.00098552646635        7.60381682036807       -0.72887651913549
C           -8.62117562853133        7.64432645425513       -0.85177998995171
C           -7.87564703664752        6.48943482918102       -0.70720761917876
C           -6.48236560676509        4.05378684446145        0.36740726342631
C           -5.73661253494226        2.90415901543278        0.50388979037049
C           -6.07833453495053       -0.68910986756176        0.31902820209574
C           -7.23567073984809       -0.75002349369430        1.10849070543525
C           -7.86724780004816       -1.95276106028511        1.34514604475533
C           -7.34148612896319       -3.11324355559006        0.78853713785503
C           -6.18138766760980       -3.05623140914190       -0.00766063715200
C           -5.55177485816046       -1.86153573859665       -0.24606105640375
C           -5.80337645348176       -4.43372616042225       -0.50199410637458
C           -5.84490655236224       -4.50571841602086       -2.03262317713761
C           -4.41867589365981       -4.83996113713379        0.01586570818173
C           -6.89143826411113       -5.28288159513286        0.11689171984557
C           -7.08294381871303       -6.64474512916172        0.02694179518428
C           -8.16625956775536       -7.21389294676772        0.68485075541874
C           -9.04446998002602       -6.43152613985782        1.42277022060906
C           -8.86156223437209       -5.06296460735982        1.52022539298431
C           -7.78020066094980       -4.49036968916093        0.86438957093370
C           -3.42883672226330        1.50225879583970       -0.84451753675830
C           -2.06215648726008        1.53694286478970       -0.94399480596879
C            0.82732147822421        1.94830986711348       -0.42033496510687
C            2.18656918334318        2.07301135507040       -0.35796947292664
C            3.00574380909792        0.92936850155871       -0.23135119614619
C            2.41550897125983       -0.35165820683019       -0.21238699323724
C            4.43704570883690        1.08515332573152       -0.15057845842535
O            5.01637750975926        2.17685510072994       -0.16858757909454
C            7.19878829350437        0.41909856468401        1.21565077248332
C            8.58024964067186        0.54979111453868        1.29044888076261
C            9.16707263071329        0.95046772303314        2.58788908258972
C            8.99118454805325        0.14360557025825        3.70774496209241
C            9.51622659405729        0.51819706988022        4.93196011159154
C           10.21152828306741        1.70977377980253        5.05479378578433
C           10.37964564437142        2.52508305991294        3.94764152851023
C            9.86350733622753        2.14738998774185        2.72095209789596
H           11.23846373466178        1.35513506683197        0.08535534991583
H           11.19047214435597        0.06604737350268        1.28173816459598
H           11.33389609256314       -0.32289587964569       -0.44224427275940
H           10.44562384181151        1.56078922350301       -2.37127851303800
H           11.68124934618824        1.06030760216735       -4.44165539597914
H           11.45831056369316       -1.15366002211626       -5.51066091083371
H            9.98475473390429       -2.85948347827987       -4.50240935376391
H            8.75182867209911       -2.35299615289392       -2.42620592088283
H            6.90033929971009       -0.48312893210591       -2.01966380395848
H            3.30357492553705       -3.63594927421505       -0.13025820848956
H            0.84591778055493       -3.89027366355572       -0.42035708542754
H           -0.58489061798413       -1.91227399826052       -0.57849042732546
H           -1.29207135947078       -0.86457279163146        1.31468238343455
H           -3.72706649879266       -0.93344799226343        1.49775121137201
H           -7.77923441412148        0.75324646759254       -1.13445161547406
H           -9.09685058455227        2.80542484971761       -1.37259925365514
H          -10.38793191647801        4.30876620797880       -0.10274375083918
H          -11.70672198654859        6.36350775956057       -0.36175153564862
H          -10.58203937442330        8.50768799932324       -0.83870450518621
H           -8.12520172144286        8.58080678730169       -1.06286307339319
H           -6.80244076768779        6.52693169911167       -0.82353868124782
H           -6.12535035540944        4.97119778801859        0.80994104850984
H           -4.80228407567083        2.92245291707013        1.04493825748491
H           -7.61489560188667        0.15689752255783        1.55475187307921
H           -8.74895235376087       -1.98939424176500        1.96590331781123
H           -4.67597645786642       -1.80436010995649       -0.87421281243727
H           -5.10034834447525       -3.84012781328199       -2.46240362300078
H           -6.82743874326135       -4.21528097878148       -2.39916819699997
H           -5.63671972044837       -5.51946615092143       -2.36529688040173
H           -4.19225645533865       -5.86106252689595       -0.28041092034209
H           -3.65441399389013       -4.18318922468628       -0.39233069914395
H           -4.38715107734789       -4.78008818454707        1.10200519297990
H           -6.40822418329848       -7.26600616962280       -0.54338017562910
H           -8.32764847674751       -8.28027102987518        0.62200008357050
H           -9.87850612153889       -6.89851038589193        1.92622650753238
H           -9.54452396183668       -4.45633240853082        2.09579939563887
H           -4.03192085339493        2.15428535322716       -1.45882673623302
H           -1.60055750516582        2.21694341830734       -1.64294844066629
H            0.21819860461275        2.83872462348336       -0.46765146474414
H            2.67208089495726        3.03689434282145       -0.38805174707428
H            6.58898841813590        0.61825607939792        2.08587144616024
H            8.44743860345180       -0.78557419014465        3.60703625114588
H            9.37894661663234       -0.12058078352662        5.79279545940184
H           10.61852848880062        2.00338227015386        6.01140215143822
H           10.91374474453311        3.45976854397766        4.04041391226066
H            9.98269395158189        2.78861049830403        1.86003653883673
