114
 energy: -174.587625557310 gnorm: 0.000066127014 xtb: 6.7.1 (edcfbbe)
C           10.84815805938833        0.40497521019570        0.49219828425130
C            9.37250681182551        0.21627277686760        0.28492616600874
C            8.72240592657812        0.79246639995520       -0.81060049958140
C            9.44874366274105        1.55654878860121       -1.84641453364266
C            9.07212372066998        2.86827686318405       -2.12208938772240
C            9.72198339568845        3.59397275415524       -3.10436375454164
C           10.75011464425738        3.01590614443220       -3.83086300106157
C           11.12317125677601        1.70748467102177       -3.57161008337369
C           10.47882680259936        0.98230691085754       -2.58520504444352
C            7.34406661652717        0.67016293675551       -0.94909167130572
C            6.60354186941118       -0.01392353765248       -0.00320288618073
N            5.18393162100911       -0.12010130851374       -0.14325830583564
C            4.67047026650950       -1.37483498580703       -0.43871488134042
O            5.43224951142891       -2.33366001210851       -0.59091969524822
C            3.23018090397053       -1.46579338493127       -0.56738558207083
C            2.64658863223429       -2.69777075469745       -0.90159193871953
C            1.28473688428702       -2.78380557437733       -1.08127451544903
C            0.47226974994868       -1.67124426424684       -0.89105218812552
C            1.00394570247211       -0.43896817637088       -0.48883091786670
C            0.19928253539787        0.72432507481083       -0.26553487930687
C           -1.23642175840073        0.66479796443997       -0.15510999540530
C           -1.88486647517403       -0.39052334303754        0.52010782257381
C           -3.24878915612522       -0.43326280875925        0.64057669607861
C           -4.04934360276970        0.58041721445732        0.08611540487584
N           -5.43178464008290        0.52697357246189        0.19034045535384
C           -6.16496045065806        1.70523388742939        0.33483142462130
C           -7.41231960762118        1.84628746022979       -0.28212560502951
C           -8.13047124217570        3.01238970667520       -0.13726795548073
C           -7.63223820622162        4.07737297348031        0.61800123657980
C           -8.39722066401403        5.32033242098936        0.76456417183290
C           -7.75366814241150        6.55748438865028        0.72763342496860
C           -8.47459582751822        7.72936614285261        0.85992350829774
C           -9.84766821081265        7.68639481544694        1.04227091602544
C          -10.49690770094417        6.46286426398295        1.08578133801575
C           -9.78025232602381        5.28941977382713        0.94356849866677
C           -6.38491948055342        3.92880052908946        1.23021960535033
C           -5.66160250625766        2.76470060906619        1.09681437168359
C           -6.08496105219620       -0.70212666732011        0.16275213465457
C           -7.22442826973382       -0.91240625457655        0.95258722243266
C           -7.87051636686371       -2.13060361431522        0.95095252827315
C           -7.37713804599167       -3.15621081278614        0.15244179443385
C           -6.23592967989389       -2.94816005792635       -0.64598384016471
C           -5.59302485106422       -1.73670766843031       -0.64895449846146
C           -5.89050799924100       -4.19891600955067       -1.42159950188168
C           -5.97034693585971       -3.95809583012552       -2.93326506454360
C           -4.49931632388621       -4.71511720400418       -1.03567676213508
C           -6.97465315905404       -5.14683658409994       -0.95914660619698
C           -7.18647659363785       -6.46042192019885       -1.31820489827490
C           -8.25916327754025       -7.14329622514253       -0.75850502688802
C           -9.10804834390954       -6.52027444415535        0.14652764893740
C           -8.90499016007706       -5.20130555640149        0.51398760931881
C           -7.83353516285078       -4.51581761369556       -0.04225040213324
C           -3.41613449280175        1.65097772484283       -0.56646489889843
C           -2.05014295687490        1.69454243683075       -0.67219944231646
C            0.84200665116918        1.96898488288863       -0.08029477703771
C            2.20171640119376        2.07116061976780        0.00892483158578
C            3.01619770689814        0.92390868809625       -0.11655073044025
C            2.42060752010356       -0.32690047562895       -0.38089727026135
C            4.44682840197204        1.05012932433508        0.01138733707590
O            5.02334239813909        2.11398042230322        0.26438837559218
C            7.23621161188780       -0.59034642388069        1.08333272758192
C            8.61481514262081       -0.48952361757969        1.22429675372966
C            9.23758357334584       -1.13520378578651        2.40028721709883
C           10.16201588558309       -2.16354835788583        2.24666438398675
C           10.71320011710143       -2.78234336118347        3.35428469803160
C           10.35269106330617       -2.37830246542476        4.62919412239717
C            9.42977407056217       -1.35841949646270        4.79153078191845
C            8.87074335227147       -0.74481884473840        3.68446952321961
H           11.41034529874058       -0.41672951666420        0.05057944208485
H           11.18262665811851        1.32987888849148        0.02854932072208
H           11.07932193019676        0.43335839076896        1.55474135726021
H            8.26996179006564        3.31564028307477       -1.55142674077879
H            9.42337572436324        4.61328165733570       -3.30384320043922
H           11.25586535476259        3.58240981610283       -4.59923760693759
H           11.91883771472189        1.24910176222481       -4.14123721443191
H           10.75993076939526       -0.04290567501196       -2.39564687175617
H            6.84636708781047        1.11557612848943       -1.79898074736173
H            3.29713116690033       -3.54953797419406       -1.03151891142415
H            0.83963077601903       -3.72362107797242       -1.37407634771477
H           -0.58530129838505       -1.75513220357714       -1.08573302672397
H           -1.28478490611516       -1.14770568286722        1.00079290665938
H           -3.71726490507522       -1.23084078927875        1.19801954675142
H           -7.79717595800152        1.04305942856472       -0.89252307881598
H           -9.07849872626164        3.11700258821085       -0.64248479994321
H           -6.68614022733906        6.59994942607901        0.56802271863975
H           -7.96451814775820        8.68110186022646        0.82061039316072
H          -10.40914771384042        8.60284353616725        1.14969025614309
H          -11.56670173551665        6.42493281861944        1.23266900530177
H          -10.29152482363561        4.33941009248354        0.99671309893594
H           -5.99481626206793        4.72671877513504        1.84347158428466
H           -4.71269219623629        2.65309900725198        1.59990734661073
H           -7.57661746907252       -0.11441268684187        1.58870498317243
H           -8.73771402149220       -2.28543222423518        1.57389079863916
H           -4.73144776509603       -1.56036584347110       -1.27465821036381
H           -5.22614146586193       -3.22673037042816       -3.23867934223321
H           -6.95688935839806       -3.59004811489644       -3.20773196252754
H           -5.78527618061273       -4.88514389928727       -3.46995760183891
H           -4.29356414978492       -5.65377575369798       -1.54388840567523
H           -3.73616256165959       -3.99400959543677       -1.31813525733781
H           -4.44117564726747       -4.88348343430661        0.03788010267942
H           -6.53467768746716       -6.95815469980762       -2.02090629597344
H           -8.43571290743036       -8.17357320461451       -1.03145875269495
H           -9.93466238854249       -7.07352019140880        0.56818089814495
H           -9.56562331946547       -4.71826384284047        1.21821364098270
H           -4.01792518643462        2.42507025927481       -1.01909021324720
H           -1.58768693893071        2.50462737506240       -1.21438368972770
H            0.23644675483257        2.85072222110616        0.06795999820145
H            2.69047669360415        3.01614846279337        0.19279604705612
H            6.65643881942389       -1.13348002863586        1.81640161400631
H           10.43236847791751       -2.48765952100102        1.25253875668457
H           11.42555633589623       -3.58398961278049        3.22205431446504
H           10.78662078541574       -2.85911726612145        5.49380701427075
H            9.14157433182675       -1.04104572620976        5.78355011374433
H            8.15035549797782        0.05212515908703        3.80733545706553
