61
 energy: -105.480202350586 gnorm: 0.000129248240 xtb: 6.7.1 (edcfbbe)
C           -6.23238961589536        2.16546390659037        2.80447385339019
C           -4.85207976053806        2.08648305365553        2.86968004706142
C           -4.15469378440771        1.26468746006645        2.00267665456949
C           -4.83022046476416        0.51007588878001        1.04696501397582
C           -6.23258279265470        0.58434635153586        0.99909280278639
C           -6.92225481162208        1.40903837718411        1.87054207237350
O           -6.97013205263093       -0.14962107567646        0.10964057722868
C           -6.29335630022277       -0.95847393535372       -0.76274767958931
C           -7.04446558536242       -1.68682374244792       -1.66850444187521
C           -6.41667292011739       -2.51041111645869       -2.58930985089476
C           -5.03526699276448       -2.59425084240482       -2.60746426419548
C           -4.27676445860021       -1.87095982279604       -1.70460448046006
C           -4.89105725425960       -1.05195752296520       -0.76077987258804
N           -4.16183914684059       -0.31944006534425        0.16118357696362
C           -2.74317243600154       -0.39403817234453        0.18295433527652
C           -2.12709592154435       -1.53403902649005        0.69479147184906
C           -0.75020384630468       -1.68422640548860        0.75635459389185
C            0.04712315755135       -0.63933474829856        0.28132995850660
C           -0.58672783874812        0.51674275108613       -0.24020179623496
C            0.34250330734792        1.48615710002187       -0.68446157151342
C           -0.13732927648926        2.67682808197262       -1.22879972602190
C           -1.51408985691502        2.85030354701713       -1.31027369555305
C           -2.42544841094294        1.90016496133613       -0.87397029790343
C           -1.97369048677417        0.68891298178530       -0.31446619746029
C            1.63349193499021        0.94239181171000       -0.43936014165453
N            2.83612224559880        1.37798562214680       -0.63645951747568
C            3.89658963640705        0.65233043679235       -0.30803722259929
C            5.21869238296731        1.14474172650376       -0.53057612004246
C            5.44319007472727        2.40810112139860       -1.10001698272663
C            6.73563762398234        2.83596782998872       -1.29247458562844
C            7.77961451389137        1.99023194814453       -0.91108142689522
N            7.59148761912353        0.80585472762262       -0.37732478396688
C            6.35032021689609        0.37220810228669       -0.18212622060294
C            6.16634134320607       -0.94183114244048        0.41050825150867
N            7.24920387937169       -1.64598632445324        0.72666245324454
C            7.10445855438670       -2.83513757562412        1.26373283207692
C            5.86223305032450       -3.41433293839349        1.52757187386519
C            4.72843815274351       -2.70320600451565        1.20814505549638
C            4.85985840631583       -1.43101425555924        0.63298301477208
C            3.71185891908287       -0.65073853721477        0.28140321249889
N            2.49117899607463       -1.11103217826239        0.48968973350156
C            1.44083346884947       -0.41229221053890        0.17450102169675
H           -6.77604312155114        2.80746570304404        3.47917079725436
H           -4.30907175493999        2.66548215739832        3.60029878575573
H           -3.07989017176845        1.20080981473183        2.05998692347423
H           -7.99776415747355        1.44191651970575        1.80231154177356
H           -8.11800808688906       -1.59196186506955       -1.63752266189574
H           -7.00835109064544       -3.07636498029994       -3.29111276950195
H           -4.53918153824209       -3.22444811139929       -3.32908852129875
H           -3.20021786119662       -1.93103029721887       -1.72585117702870
H           -2.76184967227295       -2.32932724331505        1.06117223977826
H           -0.31135345376243       -2.58096966811062        1.16325119708574
H            0.53922237626927        3.44057785573839       -1.57855760846457
H           -1.89409863962014        3.76934658007490       -1.73381194361548
H           -3.48443893382060        2.09326953853645       -0.96490004766999
H            4.59067885843008        3.01283759731915       -1.37268031737698
H            6.94480419693625        3.80117209881381       -1.72728438064759
H            8.81211172337780        2.28526945385968       -1.04371026849473
H            8.02300462392946       -3.35728318719705        1.49738129109694
H            5.79851298021962       -4.39596103614005        1.97111242431173
H            3.73681827937156       -3.09295826866816        1.38587509452017
