61
 energy: -105.526519768324 gnorm: 0.000047318561 xtb: 6.7.1 (edcfbbe)
C           -6.08477146728674        0.17593548097540       -3.57611465617468
C           -4.70758471250736        0.24917107109608       -3.60950106582388
C           -3.98143707153483        0.31498793513594       -2.42915353001402
C           -4.62947818140610        0.30976975003861       -1.20214428464776
C           -6.02822178914926        0.23128096930490       -1.17546541384273
C           -6.74487341927231        0.16525629194639       -2.35438380520959
O           -6.74121098313274        0.21703859009204       -0.00004176189368
C           -6.02815798322548        0.23057207862185        1.17535126360371
C           -6.74475119873718        0.16394088108544        2.35427100856266
C           -6.08458725593346        0.17397418911674        3.57597427760895
C           -4.70739935781205        0.24720316961451        3.60933000232426
C           -3.98130940657189        0.31363085872339        2.42898108791113
C           -4.62940997525623        0.30900121452376        1.20200028428179
N           -3.93002215615005        0.38247017665459       -0.00006883670932
C           -2.51573577521138        0.46568420933297       -0.00007958415498
C           -1.90135360495401        1.70038804338706       -0.00047170581536
C           -0.50449774973614        1.85724238620799       -0.00049090342086
C            0.27581450099998        0.72861524102831       -0.00013966297827
C           -0.35508399068257       -0.53800373319113        0.00019912225118
C            0.57639588974057       -1.60313310292646        0.00040994499408
C            0.10620222486912       -2.89198590437826        0.00069094927658
C           -1.28688830540570       -3.09566692533146        0.00077063818331
C           -2.19194861461759       -2.06160655527556        0.00058294050141
C           -1.73837619679511       -0.72359199566954        0.00027378287737
C            1.88863589522242       -0.97242235509637        0.00021877834093
N            3.07721584717826       -1.52329170264682        0.00025498728639
C            4.11868175622770       -0.67058118342208        0.00007188995342
C            5.44983791846344       -1.22043577561441        0.00006444174342
C            5.67095915208995       -2.60347489756344        0.00013831646357
C            6.96400356856238       -3.07276661292348        0.00011053875778
C            8.00528881120592       -2.14065774686072        0.00001275946467
N            7.82128257516105       -0.84337782194202       -0.00005294219362
C            6.57470973619253       -0.36882352392234       -0.00003163730351
C            6.38763420556323        1.06886724009079       -0.00011223943233
N            7.47081633074757        1.84731165858006       -0.00012667061102
C            7.31572532407998        3.14838403650921       -0.00018625831927
C            6.07018136841202        3.78224903848445       -0.00026118940626
C            4.94085148847716        2.99695193594105       -0.00024768189098
C            5.08221450703522        1.60351756800491       -0.00016246711470
C            3.93673356582179        0.73066160435780       -0.00010096570677
N            2.71216759779448        1.28876732373106       -0.00020337665044
C            1.70435738279093        0.45202349146698       -0.00006746301526
H           -6.65412662858080        0.12639484514508       -4.49078800829375
H           -4.18327655065899        0.25648708543696       -4.55267776094484
H           -2.90382487234811        0.37261477093088       -2.45858791795879
H           -7.82013567724575        0.10785007009217       -2.29826265438652
H           -7.82001776659991        0.10659099779452        2.29817577667937
H           -6.65389749469495        0.12396659039642        4.49065006903458
H           -4.18304721063484        0.25407656443969        4.55248526711603
H           -2.90370068856742        0.37132761339261        2.45839675763345
H           -2.52684299315260        2.58164243935534       -0.00077325866633
H           -0.06963541677985        2.84439733916483       -0.00075311046719
H            0.77908022339423       -3.73541662209423        0.00083547392900
H           -1.65435286958653       -4.11159025103695        0.00098732029297
H           -3.25246281740036       -2.26627255168380        0.00067027163219
H            4.81803223367618       -3.26506926188040        0.00021371406405
H            7.17605343331766       -4.13082418646652        0.00016421152252
H            9.03827415911509       -2.46454208056261       -0.00000729117921
H            8.23095849020273        3.72656299351998       -0.00022570472067
H            6.00363139528143        4.85929753772023       -0.00032255184362
H            3.94668260001435        3.41743250903159       -0.00028151551260
