109
 energy: -168.101402879092 gnorm: 0.000057666547 xtb: 6.7.1 (edcfbbe)
C           -7.66475788532368       -5.78212692193726       -0.02052072053627
C           -8.05250181126707       -4.60171237546932       -0.63631044425596
C           -7.33750170878939       -3.43812285331213       -0.43047011808273
C           -6.21792452915158       -3.44248887125522        0.40355651306247
N           -5.48869832636138       -2.26534771027643        0.61503985512845
C           -6.17138200180352       -1.05360407455530        0.76508310215916
C           -7.39430242605839       -1.00893929594654        1.43849018276580
C           -8.06216327764153        0.19145395688242        1.58277428042594
C           -7.52559061698087        1.36132011485304        1.06636349411616
C           -6.31108641765204        1.32142752187912        0.39841954308082
C           -5.63595582447195        0.12697690177782        0.24593896658168
C           -4.10452457903670       -2.30469909492711        0.67328238966785
C           -3.37024852503753       -3.24467765587273       -0.07351307992428
C           -2.00464323599428       -3.26810202236812       -0.02977090032976
C           -1.26046839999465       -2.36211610951173        0.77248437439749
C            0.16107527749873       -2.32895840027880        0.78771527241180
C            0.96677262399504       -2.96838771614165       -0.20561922125967
C            2.30376833892468       -2.74771577913033       -0.29892007977452
C            2.96791036319434       -1.83942430611276        0.57897694169448
C            4.28118196216911       -1.43205407571368        0.29500778402920
N            5.15031765348590       -2.14327693364532       -0.43471921415342
C            6.29296740088377       -1.45128088924803       -0.43577757634875
C            7.53444396567648       -1.83226806949042       -1.02469553741726
C            7.67416526451237       -3.06451105936072       -1.66942627029441
C            8.88525194373116       -3.44096321843767       -2.20224350734821
C            9.97482680684228       -2.58264164686402       -2.08556389173803
C            9.84734127652432       -1.36286651111046       -1.45762874634307
C            8.62566436259112       -0.93838987269993       -0.91355524520540
C            8.44900847289724        0.35644809345515       -0.28108447181692
C            9.48170459823226        1.29965082464344       -0.23901385301945
C            9.31650451481317        2.54753415910166        0.31951051063588
C            8.07960380788136        2.91584013219228        0.84841697392835
C            7.04133265274368        2.02200023094456        0.83511648487437
C            7.19412024238022        0.72609123960376        0.30091254484782
C            6.15540304407293       -0.22876960597543        0.26756771268027
N            4.86709131454965       -0.23168394911289        0.74493534323191
C            4.11296530220308        0.78119807221120        1.36147313719728
C            4.45207895927199        1.28840327766942        2.61403957258829
C            3.60875431612722        2.20203599332771        3.22108260925494
C            2.42160256511680        2.58193925734408        2.61843284103568
C            2.06612079436939        2.07799532400862        1.36691360562966
C            0.77903935441377        2.40475407255731        0.73600321134187
C            0.21024099238342        3.67996760556087        0.87042976255910
C           -1.00560201529644        4.00493887967449        0.30407548399806
C           -1.67418101381152        3.02515545250138       -0.41820543799761
C           -1.10609914089137        1.74111402635402       -0.58614766063026
C            0.11034142675219        1.43231214398969       -0.00027375434599
C           -2.00421442465628        1.00502941633457       -1.43116263108274
C           -1.99205171589633       -0.28687343107253       -1.93942367388419
C           -3.03954237757031       -0.68990720935911       -2.74383515360651
C           -4.09062859633675        0.17617538126058       -3.03925357009346
C           -4.12306420485218        1.46781069007148       -2.54709760336036
C           -3.06778063996296        1.88285860135115       -1.74620811030089
N           -2.86218761443729        3.09432231129545       -1.11453997904514
C           -3.73637805178015        4.19377243709265       -1.13985486813739
C           -4.15850440696785        4.77133535503037        0.05444714667464
C           -5.02242691477203        5.85110831814787        0.03149059588029
C           -5.47740426214871        6.35558674908609       -1.17601138314863
C           -5.06029698419340        5.77936760388136       -2.36496184220427
C           -4.18892532455258        4.70506229636736       -2.35238365580325
C            2.94260069681463        1.20104134998715        0.73687216167693
C            2.21280447106984       -1.38045317984662        1.69946840033954
C            0.88038944482734       -1.61634222794937        1.79348673124301
C           -2.02443616250527       -1.43546665635088        1.53276195434279
C           -3.38789226649158       -1.40316371482550        1.48183686993743
C           -5.83332753839879       -4.63237779446771        1.02458906433728
C           -6.55391518458671       -5.79078411627186        0.80938299159802
H           -8.22508600899813       -6.68979022092621       -0.18582788477462
H           -8.91376559426363       -4.58951630791395       -1.28779004383530
H           -7.63097662511643       -2.52095727951516       -0.91948191483801
H           -7.80761732487307       -1.91639277930097        1.85350346474027
H           -9.00487606651134        0.21512345524583        2.10923586988123
H           -8.05036277720122        2.29748753312037        1.18196091900364
H           -5.89047847639208        2.22560206555135       -0.01590079800334
H           -4.70013444756471        0.09133705658417       -0.28966581930834
H           -3.89956926466875       -3.94101529890108       -0.70775004987393
H           -1.48460507417395       -4.00459678139030       -0.62186476860882
H            0.49686363697652       -3.60489241390856       -0.93952182854082
H            2.89129800813198       -3.19836912137350       -1.08448070075718
H            6.80637396101401       -3.70405818969153       -1.72651062354357
H            8.99408991028798       -4.39344579846248       -2.69952301496739
H           10.93282367743363       -2.87427392012835       -2.49180477323155
H           10.72132233332114       -0.73485869548134       -1.38813347436450
H           10.44300727028983        1.05924688427432       -0.66417413449804
H           10.14007023912985        3.24602492866060        0.33364047510900
H            7.93859670748740        3.90383182569249        1.26189998663709
H            6.08047220562465        2.31894948415287        1.22309899531876
H            5.35161749533559        0.95003585392386        3.10772212174451
H            3.86697570649496        2.59592293909087        4.19327317892684
H            1.75215564061717        3.25112542959377        3.13704352504222
H            0.75319940213580        4.43970237514212        1.41281955418577
H           -1.41281836534641        4.99964634319596        0.40698245473997
H            0.51865155629814        0.43847998524668       -0.10099858543742
H           -1.18044633749608       -0.95727391385189       -1.70259009693068
H           -3.04897278874241       -1.69081238109103       -3.14892751475681
H           -4.90082746843088       -0.16991293741073       -3.66431631830281
H           -4.95000022746577        2.12377595982015       -2.77183071175077
H           -3.81478025031747        4.36224634170607        0.99316034000349
H           -5.34731322861411        6.29468623523150        0.96117701831287
H           -6.15474384607039        7.19625174547247       -1.19060294764721
H           -5.40867790961041        6.17275828626494       -3.30860277059694
H           -3.84472972890338        4.26653957693556       -3.27722511295671
H            2.71592797595426        0.82208354760799       -0.24881538018962
H            2.72224314917727       -0.88274624471531        2.51063491548604
H            0.35990399694030       -1.28131772090933        2.67766733413961
H           -1.51752179382829       -0.71143070803958        2.15009131392783
H           -3.93070496013912       -0.68660111920406        2.08095217934423
H           -4.97622207764932       -4.63388127581230        1.68188404177804
H           -6.25080913484619       -6.70468703656577        1.29854507700771
