109
 energy: -168.180844082412 gnorm: 0.000063529969 xtb: 6.7.1 (edcfbbe)
C          -10.19096989612265       -1.49046320311975       -3.80544026098571
C          -10.91237741048820       -1.16737531420961       -2.66731161296430
C          -10.26484794122447       -0.94288836589157       -1.46758650787150
C           -8.87616797141074       -1.04963081928941       -1.38674655188086
N           -8.21639649486531       -0.83411140415630       -0.17087883988868
C           -8.80035723328399       -1.26183892351062        1.02855682081088
C           -9.50454789294903       -2.46458895850504        1.08466417785814
C          -10.08529932957527       -2.87691092742843        2.26864497806839
C           -9.96757996044064       -2.10635025635013        3.41437624910219
C           -9.26431539437612       -0.91333567920269        3.36545367254501
C           -8.68669558877908       -0.48881095245651        2.18423458190523
C           -6.96768852091946       -0.20503527421767       -0.15274206720509
C           -6.69030825948670        0.85255859220536       -1.02018364570994
C           -5.45660724992500        1.46849073477323       -1.00019715950676
C           -4.45744877906817        1.04968377537897       -0.12228538047305
C           -3.14344882074762        1.70489166321733       -0.10611221865848
C           -1.97339736766030        0.95636387771878        0.01132173606166
C           -0.73538488880486        1.56614955155846        0.02385926187149
C           -0.63023468074434        2.95253348265658       -0.07787944853185
C            0.64172750579636        3.65508291295201       -0.03964374674603
N            0.78851686332135        4.82987783929068        0.52580668528847
C            2.10139012945372        5.15142366895414        0.38236881464452
C            2.76755066667434        6.31825200714473        0.85105861427135
C            2.08026675409691        7.31367405490383        1.55496391009461
C            2.74397981056500        8.42343606578986        2.01538104649078
C            4.11192705994737        8.54874402992761        1.77895792943257
C            4.79699536652120        7.57833867470349        1.08540185384232
C            4.15257746696558        6.43320486559560        0.59087838568717
C            4.84256973084730        5.40463798085523       -0.16938798835988
C            6.20499922806838        5.51438560972638       -0.48471013678689
C            6.86100125348308        4.56553563264887       -1.23292138858467
C            6.17025061426570        3.45845041143019       -1.71594153299895
C            4.83649396361519        3.30996578276164       -1.42495366339465
C            4.15340488859834        4.25362096030571       -0.64363929339179
C            2.77440547777993        4.14293763152624       -0.30590819398841
N            1.82303956489846        3.18019730908869       -0.56234670575528
C            1.95226665362540        1.97922621559550       -1.29701313728200
C            1.31345681981332        1.86435337470850       -2.52537026566869
C            1.42032144743747        0.68111496789262       -3.23552493320091
C            2.15690405875765       -0.37353983911091       -2.73027990815546
C            2.80035779326597       -0.27009376493577       -1.49659654040742
C            3.57695462881673       -1.39728398838992       -0.95905293804931
C            4.41011190827865       -2.13718868869506       -1.81096875112435
C            5.14543043129381       -3.21378558991013       -1.36161286335620
C            5.02960887673945       -3.57077020444712       -0.02458644488377
C            4.21309492559532       -2.82256481908087        0.85624730735174
C            3.49165680292782       -1.73624888908760        0.38532120786607
C            4.34920646101850       -3.43003715832680        2.15095094525215
C            3.79026535927595       -3.16675612337019        3.39525523654333
C            4.12527241772214       -3.98346098902726        4.45689829973896
C            4.99585740478881       -5.05865519953404        4.28743471553561
C            5.56499618408207       -5.34016820682033        3.06009145535609
C            5.24801398334227       -4.51069711900653        1.99336072522112
N            5.64983224758161       -4.58278257737072        0.67409924877279
C            6.52921978478690       -5.53591580230669        0.13214821284100
C            6.15416945670622       -6.27368936463649       -0.98669206183705
C            7.02343554314662       -7.20832464773797       -1.51941377731946
C            8.26278928071443       -7.42092461985268       -0.93796140694370
C            8.63509635037039       -6.68990610569847        0.17842125433888
C            7.77678035013010       -5.74544741644222        0.71191485782603
C            2.68505055915459        0.91792409574999       -0.78065087253126
C           -1.80085485861820        3.70735987430574       -0.17363074267224
C           -3.03449104148497        3.09300244495111       -0.19599651231661
C           -4.74021258235072       -0.00738810299069        0.74213179197222
C           -5.97359514768610       -0.62381100092146        0.73287085576665
C           -8.15514621003133       -1.37820160219911       -2.53514284070089
C           -8.81089163865450       -1.59132018097533       -3.73236251858390
H          -10.70023847174614       -1.66223735656330       -4.74187962334913
H          -11.98825719824331       -1.08033918723329       -2.71501301156172
H          -10.82999119017773       -0.68192278313838       -0.58457430427756
H           -9.59065633226397       -3.07142110859941        0.19486755339785
H          -10.62696328599142       -3.81130066679347        2.29828591923814
H          -10.42082132768038       -2.43301114651420        4.33834899998967
H           -9.17150315656923       -0.30315406317205        4.25228472042308
H           -8.14588363387427        0.44577675639185        2.14689313583168
H           -7.45245222072461        1.18797286216029       -1.70855153018872
H           -5.25766979821963        2.27902513461902       -1.68589798181556
H           -2.03331546449465       -0.12003179215241        0.07963541044493
H            0.15023312596209        0.95908183931890        0.13227547793193
H            1.02304323290067        7.17432888661117        1.72287294552715
H            2.21573894919812        9.19310270031496        2.55890822074534
H            4.64072082716284        9.41767957992943        2.14390185524249
H            5.85467757539385        7.71850365391703        0.92839617386485
H            6.76690280343679        6.36787053682747       -0.14145065499258
H            7.91152212147162        4.68566687069657       -1.45405825521299
H            6.67784296449237        2.71938836804434       -2.31823026829802
H            4.30255969813883        2.45706090042451       -1.81150214256371
H            0.74152927295419        2.69545529349695       -2.91024638555665
H            0.92296909538108        0.58493647363668       -4.18893157089195
H            2.22118126007547       -1.29742009157645       -3.28481966748693
H            4.49572273103379       -1.83708768242962       -2.84489338139582
H            5.79733247416526       -3.75515942740302       -2.03034632679244
H            2.85393869893647       -1.17785908525488        1.05422420698947
H            3.10424004111874       -2.34280199924537        3.52452541059431
H            3.70237655119534       -3.79555403659786        5.43296898746983
H            5.22797774802202       -5.68827204785535        5.13405001289900
H            6.22612236604986       -6.18439141911527        2.93522414180667
H            5.17905680970287       -6.11847149830870       -1.42425429146582
H            6.72779763934714       -7.77870612061659       -2.38767903732069
H            8.93680018585946       -8.15473456176489       -1.35382046350853
H            9.60213607007947       -6.84935013174594        0.63232532103053
H            8.07051428864584       -5.15937910914920        1.57021079368484
H            3.18364426539793        1.03166295322925        0.17155826592599
H           -1.71794905064578        4.78225599593296       -0.22758967811027
H           -3.92964310122283        3.69398496196614       -0.26136833912192
H           -3.98704461643176       -0.33984647818146        1.44133943917288
H           -6.17644449874746       -1.43980561773389        1.41125949426879
H           -7.08000018764750       -1.46885176700982       -2.47971188033016
H           -8.23973117593457       -1.84776159835428       -4.61293766578192
