  109
       -168.03918459
 C         -7.6629796095       -5.6571320575       -0.0976563798
 C         -8.0485690052       -4.4672337651       -0.6952957521
 C         -7.3292591569       -3.3093707677       -0.4756890325
 C         -6.2081340664       -3.3269851217        0.3557272367
 N         -5.4766895565       -2.1557743634        0.5827492630
 C         -6.1552405521       -0.9467035059        0.7512133039
 C         -7.3954328992       -0.9139528888        1.3933319080
 C         -8.0622075503        0.2843568560        1.5546300741
 C         -7.5078402696        1.4663093908        1.0881543931
 C         -6.2753830627        1.4396015595        0.4538623300
 C         -5.6016610333        0.2470941986        0.2843046960
 C         -4.0906324643       -2.2054972286        0.6377028158
 C         -3.3683940409       -3.1403015293       -0.1251753891
 C         -2.0032012049       -3.1802767424       -0.0827008436
 C         -1.2485177933       -2.2934046452        0.7298979154
 C          0.1726012859       -2.2765439716        0.7435562584
 C          0.9692901799       -2.9122275896       -0.2596818426
 C          2.3089030650       -2.7087395826       -0.3496252363
 C          2.9820905756       -1.8190447268        0.5399855119
 C          4.2971328595       -1.4179596588        0.2589396780
 N          5.1688377297       -2.1274164594       -0.4684489464
 C          6.3139067132       -1.4453148742       -0.4515709704
 C          7.5614939694       -1.8284971790       -1.0250016106
 C          7.7024994347       -3.0581456474       -1.6732060566
 C          8.9191756280       -3.4381663039       -2.1903023505
 C         10.0111016516       -2.5869642845       -2.0538987824
 C          9.8814650704       -1.3689271117       -1.4221230491
 C          8.6551625422       -0.9410386344       -0.8946371357
 C          8.4763210787        0.3538782631       -0.2615897236
 C          9.5108664294        1.2925739939       -0.2072901313
 C          9.3411504150        2.5425720026        0.3462679542
 C          8.0987822381        2.9158875922        0.8568680921
 C          7.0582317610        2.0248385636        0.8342367416
 C          7.2164549346        0.7279923560        0.3047215086
 C          6.1756217395       -0.2231902843        0.2597863917
 N          4.8851559060       -0.2211996202        0.7195898159
 C          4.1309944272        0.7846140206        1.3397982129
 C          4.4716200584        1.2939477405        2.5911503041
 C          3.6199087189        2.1945763379        3.2047778357
 C          2.4232735091        2.5591343220        2.6109966452
 C          2.0680297603        2.0544415296        1.3598209870
 C          0.7721603114        2.3602622427        0.7383856744
 C          0.1670913331        3.6143021541        0.9044604621
 C         -1.0611619890        3.9164155782        0.3519528329
 C         -1.7041872600        2.9341199035       -0.3889251583
 C         -1.0977816212        1.6735747626       -0.5911857659
 C          0.1296812113        1.3864252220       -0.0192407136
 C         -1.9790260275        0.9288810676       -1.4461403973
 C         -1.9323941574       -0.3523631947       -1.9770851643
 C         -2.9816683158       -0.7768616068       -2.7675947535
 C         -4.0646166456        0.0588517223       -3.0310357820
 C         -4.1274800923        1.3429310474       -2.5223890136
 C         -3.0724855693        1.7785461990       -1.7323281235
 N         -2.8984029623        2.9825514952       -1.0772136386
 C         -3.8080737935        4.0477109212       -1.0661912748
 C         -4.2134162208        4.6024749351        0.1453335232
 C         -5.1200370088        5.6460800342        0.1583112153
 C         -5.6354662072        6.1381092143       -1.0296053181
 C         -5.2341888663        5.5868218122       -2.2352932670
 C         -4.3207614965        4.5489820403       -2.2590677962
 C          2.9527403926        1.1927381525        0.7219879819
 C          2.2344131230       -1.3652166265        1.6682885256
 C          0.9000935918       -1.5877216623        1.7600105025
 C         -2.0006914919       -1.3683816233        1.5026950953
 C         -3.3642551606       -1.3241649228        1.4579197276
 C         -5.8246536136       -4.5274188537        0.9561313742
 C         -6.5486671552       -5.6804058932        0.7265705849
 H         -8.2272065600       -6.5600481699       -0.2728749799
 H         -8.9118484197       -4.4427580598       -1.3434606445
 H         -7.6213662695       -2.3841040725       -0.9500587139
 H         -7.8248860198       -1.8305093186        1.7700431986
 H         -9.0188115757        0.2966996779        2.0555259513
 H         -8.0315809967        2.4010993970        1.2171915109
 H         -5.8399652554        2.3553442261        0.0822181775
 H         -4.6515333297        0.2230222485       -0.2236711183
 H         -3.9072826037       -3.8214918219       -0.7674302316
 H         -1.4928129733       -3.9161858035       -0.6834256390
 H          0.4890346978       -3.5318752542       -1.0008925060
 H          2.8914371137       -3.1553556978       -1.1399418135
 H          6.8325556292       -3.6920613001       -1.7443287075
 H          9.0309690095       -4.3881610611       -2.6910467675
 H         10.9733761569       -2.8817832903       -2.4471635101
 H         10.7576453488       -0.7461077286       -1.3379010154
 H         10.4772335343        1.0495162871       -0.6185989899
 H         10.1662084923        3.2387404441        0.3695347165
 H          7.9557594185        3.9060965775        1.2639719376
 H          6.0937012181        2.3264427945        1.2072252506
 H          5.3773988204        0.9664261249        3.0796195099
 H          3.8775876547        2.5902464038        4.1763650750
 H          1.7473360812        3.2155357203        3.1373803695
 H          0.6895389285        4.3777639803        1.4613306761
 H         -1.4960690746        4.8965544807        0.4787270506
 H          0.5644627161        0.4087316020       -0.1480963733
 H         -1.0962898687       -0.9991536205       -1.7659420335
 H         -2.9691019129       -1.7721341734       -3.1856231912
 H         -4.8761370194       -0.3041574189       -3.6443977558
 H         -4.9809962145        1.9733127191       -2.7192702495
 H         -3.8246790464        4.2001688684        1.0690779475
 H         -5.4318142820        6.0704737220        1.1011264447
 H         -6.3465839186        6.9498604926       -1.0157537152
 H         -5.6282822953        5.9720027826       -3.1638839084
 H         -3.9882421723        4.1314936968       -3.1975104946
 H          2.7273768168        0.8178957419       -0.2641950753
 H          2.7505668174       -0.8879562989        2.4861564184
 H          0.3818661993       -1.2626368869        2.6487260233
 H         -1.4853144860       -0.6546365936        2.1242918704
 H         -3.8995857521       -0.6113149878        2.0678868305
 H         -4.9639556743       -4.5406791821        1.6081708362
 H         -6.2460823422       -6.6019543691        1.2010215874
