75
 energy: -110.029885196617 gnorm: 0.000061850932 xtb: 6.7.1 (edcfbbe)
C           -1.08037665535392        6.14913719886665        0.70858005096334
C           -0.15514670362447        5.29745140750225       -0.16458572973742
C            1.29360393732693        5.56567523370963        0.26726696624900
C           -0.35139052202396        5.72357613952122       -1.62631216749621
C           -0.43596484018218        3.80896743010722       -0.03822939220566
C            0.31967153032539        2.90434932879055       -0.78200488461201
C            0.10974761845499        1.54376840511191       -0.69810819317532
C           -0.86945883651100        1.04574815500452        0.15369429322939
N           -1.07443765558904       -0.34106756072833        0.25378910245380
C           -0.12006615348706       -1.30189436993705        0.47926268244980
C            1.27595743981726       -0.99263348033489        0.74844377373293
C            1.58492584858669        0.08603368853163        1.57785628188508
C            2.89016936675631        0.43385316006616        1.84524453548355
C            3.94935156788561       -0.28881017931252        1.29320369047775
C            5.30909678728211        0.05329893858931        1.54480842434938
C            6.32402867831725       -0.66666844299772        1.01360945830388
C            6.06917716667810       -1.79573268775204        0.18144915070680
C            7.10105297440199       -2.55321332826756       -0.37513092957515
C            6.82300249182113       -3.64342819396203       -1.17898109926395
C            5.51525490595067       -4.00313397447311       -1.44702990287820
C            4.45152536149292       -3.27434297803520       -0.91222298248403
C            3.09144181303281       -3.61293638172156       -1.16760246833236
C            2.07279118993016       -2.89403126180630       -0.64095687583854
C            2.31623579772343       -1.76727391765549        0.19780829286484
C            3.66018021986634       -1.40362666386245        0.46785071742329
C            4.72496890140331       -2.15649062725810       -0.08668876699483
N           -0.65423967267546       -2.49747689740312        0.47546002008236
C           -1.98731152511971       -2.34435023204051        0.24513509231900
C           -2.85348618173368       -3.50859431308028        0.14265111696250
C           -2.47275600987454       -4.68758765709968        0.78268833773744
C           -3.26684037386527       -5.81473183362615        0.70441161480944
C           -4.44919504579512       -5.78457843650407       -0.01728742865417
C           -4.82447599752202       -4.62289452810361       -0.67198729481308
C           -4.03323008893838       -3.49207154038350       -0.59890244841943
C           -2.27696695340545       -0.99607853429545        0.10930952866813
C           -3.53156299318123       -0.29613837548824       -0.13123966584117
C           -4.65306077073039       -0.59240202292785        0.64279709468082
C           -5.84394355990261        0.07403085860358        0.42899926729461
C           -5.93268013073169        1.04596864097195       -0.55487255408698
C           -4.82451032479556        1.34305590891318       -1.33009741030194
C           -3.63042926008742        0.67821718122069       -1.12291157653371
C           -1.63435281934599        1.93001139260201        0.90095017201676
C           -1.41773116299273        3.29227906583770        0.79863561480954
H           -2.12202942606577        6.00772707893739        0.42977301001837
H           -0.95634305986514        5.90924712934412        1.76202195895024
H           -0.83694804300829        7.20103144811655        0.57408542222833
H            1.44317359704059        5.24887629495994        1.29739001699569
H            2.00065896573181        5.02928761294778       -0.35933572838982
H            1.51397529167464        6.62865031361954        0.19759996133037
H           -1.36897690405836        5.50969830657719       -1.94669818155608
H           -0.17421318982814        6.79175155440564       -1.73087639070925
H            0.33208465589823        5.20008327702216       -2.28879293319864
H            1.09050776534269        3.26025888368605       -1.44798203421101
H            0.70369128127937        0.86087919850602       -1.28783694910470
H            0.78527461047913        0.64943728356739        2.03660717608521
H            3.10210465158602        1.27199363173294        2.49360773456850
H            5.50839109655946        0.90791696864545        2.17625935547317
H            7.35317105949459       -0.40069640865277        1.21037615683410
H            8.12581626500584       -2.27784110689511       -0.16987955046027
H            7.63468115462406       -4.21882504404961       -1.60057850744902
H            5.30480391074115       -4.85656674652930       -2.07571114029168
H            2.89000915160535       -4.46690011426754       -1.79884811557296
H            1.04798810588196       -3.17320601554428       -0.82743248926346
H           -1.54662066230023       -4.69648653027028        1.33650319117192
H           -2.96477718105088       -6.72184664220839        1.20802111005683
H           -5.07271821765444       -6.66489131772592       -0.07605432675261
H           -5.73828189951174       -4.59918660517644       -1.24850184785827
H           -4.32406724620723       -2.59716300118419       -1.12878343531397
H           -4.57899811483995       -1.34837331179953        1.41095181324657
H           -6.70633697087343       -0.16249874924273        1.03486875820441
H           -6.86389562566038        1.56783959169572       -0.71847306487670
H           -4.89022832304240        2.09490481291897       -2.10308340684683
H           -2.77331383173014        0.90502390422302       -1.74081966994261
H           -2.39499787523241        1.55093865002635        1.56749466018704
H           -2.03215435158175        3.94570293766059        1.39537593773380
