  75
       -109.96069028
 C          3.9749451476        3.3541634660        1.6266990564
 C          2.9670442082        3.7082766872        0.5304080219
 C          3.7117606444        3.7168999294       -0.8114130505
 C          2.4005203500        5.1041561848        0.8261612857
 C          1.8222762765        2.7128729789        0.4461229633
 C          0.8273692573        2.8899347423       -0.5136041858
 C         -0.2103435051        1.9930791916       -0.6582436173
 C         -0.2827560232        0.8812647014        0.1728246749
 N         -1.2901638215       -0.0829484652        0.0045578728
 C         -1.1091439011       -1.4626628912       -0.0291798907
 C          0.1290195280       -2.1445028937        0.0014115527
 C          0.1678208530       -3.4007873927        0.6552421038
 C          1.3447074391       -3.9455824697        1.0582941315
 C          2.5930462072       -3.2841622172        0.8027905425
 C          3.8037971797       -3.7618279522        1.2989476637
 C          4.9987112126       -3.1274170338        1.0016091474
 C          5.0327734654       -2.0213970435        0.1394765328
 C          6.2428057691       -1.3808752118       -0.2222557930
 C          6.2422868471       -0.3205431209       -1.1096365423
 C          5.0670263943        0.1335375977       -1.6709803245
 C          3.8248962490       -0.4615343084       -1.3290479729
 C          2.6143983346       -0.0605886913       -1.9056335164
 C          1.4145740278       -0.6318413912       -1.5136582105
 C          1.3696200820       -1.5992426539       -0.5113770926
 C          2.5891150323       -2.1313181741       -0.0258123707
 C          3.8140896116       -1.5353099716       -0.4017519528
 N         -2.2895129017       -2.0766336419       -0.0410983694
 C         -3.2385955331       -1.1267459852       -0.0517064728
 C         -4.6480129706       -1.4829456071       -0.0500522053
 C         -5.6167911365       -0.6739878115        0.5426537910
 C         -6.9440797760       -1.0581932270        0.5306304019
 C         -7.3233521733       -2.2505713681       -0.0644043323
 C         -6.3632745865       -3.0698514773       -0.6369918268
 C         -5.0350759154       -2.6927643039       -0.6272326131
 C         -2.6417747778        0.1440038513       -0.0224655248
 C         -3.2406722404        1.4650377456       -0.0185746649
 C         -2.8188802470        2.4500099083        0.8769547803
 C         -3.4023529095        3.7020153407        0.8608130111
 C         -4.4102862852        3.9933329311       -0.0441215800
 C         -4.8401039421        3.0193406948       -0.9322916438
 C         -4.2634147314        1.7651560456       -0.9222501126
 C          0.6764254340        0.7100972182        1.1620321589
 C          1.7159490296        1.6119052949        1.2869239530
 H          3.5066198807        3.3592031370        2.6083213993
 H          4.4192088977        2.3778471516        1.4455647036
 H          4.7751025792        4.0915346164        1.6337388368
 H          3.0588009426        4.0130968802       -1.6278410037
 H          4.5458839598        4.4142219624       -0.7715784141
 H          4.0998735482        2.7230803777       -1.0222808433
 H          1.7250389675        5.4332822685        0.0414137163
 H          1.8531429480        5.0967638540        1.7665158283
 H          3.2096759460        5.8269923378        0.9039875407
 H          0.8632882699        3.7374886923       -1.1807290125
 H         -0.9540952812        2.1401224659       -1.4276627283
 H         -0.7776991843       -3.8590515597        0.9021371339
 H          1.3626576552       -4.8720654828        1.6126576263
 H          3.8043014147       -4.6416031031        1.9268565906
 H          5.9250557712       -3.4972979089        1.4169991345
 H          7.1697849851       -1.7435521313        0.1965122939
 H          7.1781115847        0.1500043522       -1.3771911810
 H          5.0782651565        0.9392777966       -2.3905548156
 H          2.6185414119        0.7115752409       -2.6611540376
 H          0.5000471653       -0.3250156321       -1.9988270423
 H         -5.3278661492        0.2458544329        1.0287614697
 H         -7.6873743924       -0.4254589001        0.9939405321
 H         -8.3630161579       -2.5434857696       -0.0744635913
 H         -6.6540027426       -4.0055087902       -1.0922182741
 H         -4.2740853429       -3.3203982108       -1.0644405827
 H         -2.0467133160        2.2251185472        1.5982056269
 H         -3.0699774853        4.4541641336        1.5611844881
 H         -4.8618259504        4.9740731239       -0.0551771553
 H         -5.6264988440        3.2408272363       -1.6387226166
 H         -4.5917713892        1.0073082960       -1.6184088763
 H          0.6126519943       -0.1382339281        1.8275935334
 H          2.4484947564        1.4323666386        2.0557187664
