75
 energy: -109.963630775381 gnorm: 0.000022079607 xtb: 6.7.1 (edcfbbe)
C           -1.88075764581038        6.23462419054551        0.96148718237559
C           -2.19707116811422        5.54289369605854       -0.37215877899574
C           -1.37464989397102        6.22393483290523       -1.46926827134203
C           -3.68466735712043        5.71615057651227       -0.71001965616833
C           -1.88992337340947        4.05980180725582       -0.24480521862554
C           -0.96346909272969        3.40670703431833       -1.05043259449110
C           -0.71326178787706        2.05472736012426       -0.91012040363726
C           -1.38370064041761        1.31831569828051        0.05842101615267
N           -1.14817236662947       -0.06132426328703        0.18639121871793
C            0.07466577489946       -0.71482153841154        0.29657717044298
C            1.32033343757641       -0.06846445503559        0.51430279641566
C            1.36534134975949        1.18920701510304        1.15856554329959
C            2.53223418353375        1.84793086941428        1.38260195286387
C            3.78611930426733        1.30197716933509        0.95577436468524
C            4.98329513786736        1.98242585378419        1.14878035079061
C            6.19215236320538        1.42955278107330        0.75175875262002
C            6.23492258469201        0.16911619197892        0.14643219735996
C            7.45803190470266       -0.42173169254373       -0.26683604805420
C            7.47688767343035       -1.66954472830415       -0.86180231983506
C            6.30736665198294       -2.36805468118421       -1.07094999854665
C            5.05473347723577       -1.82052118927361       -0.67530620187710
C            3.85090802020451       -2.49861343934090       -0.87079853009372
C            2.63943531080291       -1.94000765269558       -0.48395795535057
C            2.57855064748702       -0.69129684144338        0.12920996706355
C            3.78869193888512        0.02112708231194        0.34255282632041
C            5.02301228916846       -0.54225030657540       -0.06060496990002
N           -0.11614622643653       -2.02774480107797        0.24870676006511
C           -1.43762451838798       -2.24970738627994        0.12718041582088
C           -1.95451315801131       -3.60464178557869        0.02555123815517
C           -1.21849769802815       -4.64654564021991        0.59075095832748
C           -1.67203466536415       -5.94808104134019        0.50879525513587
C           -2.86171446776282       -6.23065361942038       -0.14346424527632
C           -3.58766743497834       -5.20403301692858       -0.72537830807913
C           -3.13965453512873       -3.89908671115187       -0.64702558864590
C           -2.11678782841774       -1.02813988517937        0.08707987222083
C           -3.53665792698462       -0.73787872549224       -0.01983650486813
C           -4.44021113790347       -1.39359501633940        0.81870725271103
C           -5.79174265818282       -1.12362825353575        0.73546837854626
C           -6.26369042036607       -0.19853463592960       -0.18267154466008
C           -5.37494651686197        0.45049220329568       -1.02372894133543
C           -4.02084250395123        0.18642404735276       -0.94612211790423
C           -2.31378009242639        1.95343880262688        0.87377871507090
C           -2.55657433380665        3.30244960225233        0.71626795723771
H           -2.48900556262656        5.83818251655835        1.76961863753209
H           -0.83370077909230        6.09086597253919        1.21990543266221
H           -2.07340662071489        7.30237549977251        0.88348735295290
H           -1.58333799285410        5.78863582636760       -2.44379351861027
H           -1.63355872147060        7.27984820068512       -1.51206505839261
H           -0.30933019334715        6.14810923960022       -1.26439606860393
H           -4.31993791883205        5.30279526839141        0.06837384061089
H           -3.92264250184942        6.77198141679612       -0.81907815060633
H           -3.91890803299422        5.21133612810436       -1.64501571753968
H           -0.42125458741577        3.94301903870185       -1.81120224282098
H            0.00706356497084        1.56422187528578       -1.54833610011249
H            0.44701928039599        1.61692218135541        1.53217251774769
H            2.53581905631524        2.79230246068563        1.90684477262395
H            4.96520391459158        2.95675797469289        1.61661152351307
H            7.11345163658645        1.97111626392446        0.91061989604393
H            8.37661237216203        0.12307707625929       -0.10641083904272
H            8.42029874416437       -2.09993617661484       -1.16742673217904
H            6.32176353441511       -3.34119463214405       -1.53874639920987
H            3.86361832307671       -3.47447993996768       -1.33450064979329
H            1.72503971746319       -2.48585965259835       -0.64853089533950
H           -0.29259702936401       -4.40960734296397        1.09177440406030
H           -1.09769708175782       -6.74726944287603        0.95453613465481
H           -3.21870778790639       -7.24830717349277       -0.20528550547615
H           -4.50740862370245       -5.42237417406810       -1.24879613739861
H           -3.70110882994370       -3.10869150529622       -1.12238348454762
H           -4.06894085615287       -2.11019482608594        1.53675135230081
H           -6.48085906045056       -1.63406746242791        1.39205917240728
H           -7.32082845067472        0.01257019133328       -0.24457830898249
H           -5.73835757508398        1.16542158767308       -1.74732004607495
H           -3.33633440123548        0.68339583962658       -1.61807621125338
H           -2.83676462509882        1.38948350391463        1.63201972110212
H           -3.28271465111042        3.76739122711247        1.36510922620495
