  75
       -110.02987428
 C         -1.7807729947        6.1510822128        1.0147719339
 C         -2.0230921969        5.4860296341       -0.3478349703
 C         -1.1065742883        6.1556902351       -1.3752699641
 C         -3.4775688477        5.7095607488       -0.7859261198
 C         -1.7688087557        3.9927473944       -0.2203765719
 C         -0.8030638846        3.3232083382       -0.9628885722
 C         -0.6039334451        1.9618626759       -0.8248021228
 C         -1.3677889065        1.2339550304        0.0768912116
 N         -1.1689030445       -0.1507665149        0.2146021000
 C          0.0202401001       -0.8047689722        0.4234359314
 C          1.2837334281       -0.1218727900        0.6527976824
 C          1.3008029486        1.0325828212        1.4366137990
 C          2.4694387939        1.7207194867        1.6747826309
 C          3.6807754831        1.2787506777        1.1398406027
 C          4.9038988203        1.9730190954        1.3658858397
 C          6.0720881554        1.5223672226        0.8532311637
 C          6.1213840870        0.3338822277        0.0676276613
 C          7.3161310211       -0.1504831682       -0.4675109886
 C          7.3336008953       -1.3073672798       -1.2247296514
 C          6.1653594307       -2.0059621684       -1.4666543758
 C          4.9473398785       -1.5580083666       -0.9523078415
 C          3.7228964459       -2.2486014101       -1.1827453675
 C          2.5511643031       -1.7995748745       -0.6754390742
 C          2.4905214139       -0.6168551293        0.1181590886
 C          3.6927575232        0.0957067463        0.3601370522
 C          4.9180457036       -0.3749904207       -0.1742401347
 N         -0.1622469508       -2.1016645121        0.4501811553
 C         -1.4902181863       -2.3286619415        0.2571151002
 C         -2.0003886824       -3.6892496960        0.1894778818
 C         -1.2863791085       -4.7066112545        0.8218774006
 C         -1.7354796449       -6.0116070800        0.7736214748
 C         -2.8998631524       -6.3223420485        0.0898649756
 C         -3.6044161135       -5.3202382102       -0.5569379350
 C         -3.1592619152       -4.0125151446       -0.5137441820
 C         -2.1457291762       -1.1162907621        0.1139434972
 C         -3.5523687386       -0.7981353349       -0.0918399580
 C         -4.5215844681       -1.3770697490        0.7269146185
 C         -5.8573445975       -1.0739332228        0.5484101774
 C         -6.2449372476       -0.1875339833       -0.4438826950
 C         -5.2888853257        0.3886046911       -1.2632417272
 C         -3.9507570474        0.0869401717       -1.0920624857
 C         -2.3350761730        1.8860859630        0.8322920341
 C         -2.5276134262        3.2433524212        0.6764430229
 H         -2.4534346792        5.7608115037        1.7734265822
 H         -0.7581193760        5.9742250941        1.3414558501
 H         -1.9385552460        7.2248366364        0.9401914411
 H         -1.2563841032        5.7357239334       -2.3670727183
 H         -1.3334411108        7.2187379656       -1.4240744125
 H         -0.0612096131        6.0488368781       -1.0957709695
 H         -4.1782528099        5.3083170649       -0.0588114460
 H         -3.6749515165        6.7735640615       -0.8977791287
 H         -3.6611628216        5.2218843032       -1.7414176263
 H         -0.1881540424        3.8528883258       -1.6713294390
 H          0.1469704539        1.4591045028       -1.4168082010
 H          0.3829497202        1.3843914121        1.8849130198
 H          2.4549832159        2.6096498498        2.2891553200
 H          4.8727182041        2.8740754992        1.9625200391
 H          6.9961121977        2.0546629606        1.0305559853
 H          8.2332474364        0.3905814338       -0.2823641376
 H          8.2680949910       -1.6681671216       -1.6300018218
 H          6.1858903302       -2.9100694830       -2.0583169401
 H          3.7517332829       -3.1496941779       -1.7790051395
 H          1.6352563060       -2.3435243483       -0.8426446047
 H         -0.3785799152       -4.4492010054        1.3454776142
 H         -1.1762136675       -6.7918945959        1.2696495258
 H         -3.2531885969       -7.3426922304        0.0537780889
 H         -4.5054742520       -5.5599317638       -1.1032876274
 H         -3.7048262372       -3.2414663755       -1.0372075593
 H         -4.2151610770       -2.0651686032        1.5013070318
 H         -6.5997464605       -1.5279828549        1.1882908522
 H         -7.2894564311        0.0508085035       -0.5795982988
 H         -5.5862279835        1.0755385287       -2.0421850053
 H         -3.2111870339        0.5298745815       -1.7437130262
 H         -2.9294647525        1.3285967336        1.5410555437
 H         -3.2857918760        3.7216603122        1.2768950531
