75
 energy: -110.029890798328 gnorm: 0.000115333088 xtb: 6.7.1 (edcfbbe)
C           -1.78077011525375        6.15248805249126        1.01483192451785
C           -2.02174997037638        5.48571812380652       -0.34693185373433
C           -1.10578919015451        6.15515346299282       -1.37489496442865
C           -3.47640518547476        5.70629375217539       -0.78565289162195
C           -1.76643577344984        3.99273473250570       -0.21860312994896
C           -0.80106311259518        3.32320180039796       -0.96166936336858
C           -0.60256246708802        1.96167879037943       -0.82460055637904
C           -1.36706207967447        1.23335740948439        0.07627453940268
N           -1.16893761421003       -0.15157675355499        0.21283504437127
C            0.01997556252204       -0.80543823920795        0.42303378834996
C            1.28323861991072       -0.12231572305329        0.65299632733447
C            1.29994100230518        1.03175587659340        1.43733975720629
C            2.46839366948616        1.72015439557768        1.67571489083755
C            3.67979532091263        1.27880247589174        1.14044054089037
C            4.90274981982974        1.97333753996811        1.36659538452857
C            6.07104059793716        1.52307744917702        0.85381535092262
C            6.12061689556490        0.33493163767065        0.06770433155040
C            7.31537131397355       -0.14876502959815       -0.46799658533110
C            7.33297788441739       -1.30512089243501       -1.22603203902981
C            6.16490695950889       -2.00393308736389       -1.46810136824704
C            4.94690491260118       -1.55671704745347       -0.95309464651910
C            3.72270472558233       -2.24773152880449       -1.18349419772375
C            2.55095409578661       -1.79932103839387       -0.67573116664472
C            2.49011217604403       -0.61682776809057        0.11819697905753
C            3.69211464553358        0.09601627035195        0.36034183556062
C            4.91743832178619       -0.37412246814704       -0.17440057060882
N           -0.16241313025326       -2.10233049657790        0.45032328866607
C           -1.49022227534111       -2.32941473708037        0.25632481993749
C           -2.00061614332087       -3.68992713967869        0.18916715030309
C           -1.28726564152839       -4.70720369632758        0.82234699049874
C           -1.73692536136226       -6.01207275844797        0.77466442507780
C           -2.90125025140699       -6.32267473145040        0.09085970997974
C           -3.60505740056170       -5.32065686110666       -0.55692676836732
C           -3.15929312757549       -4.01315021768191       -0.51444420556854
C           -2.14567296086246       -1.11713050750764        0.11213317921784
C           -3.55224510741274       -0.79867124000703       -0.09351026718582
C           -4.52114490410263       -1.37596795143005        0.72676363672853
C           -5.85675996633732       -1.07164609994620        0.54942196597074
C           -6.24454478489914       -0.18617044762461       -0.44361696793834
C           -5.28885541709469        0.38786043168553       -1.26483868288561
C           -3.95078531184267        0.08546560004784       -1.09443661024180
C           -2.33332820385435        1.88561738542190        0.83273161113139
C           -2.52477119296495        3.24325983603949        0.67842077304225
H           -2.45443320527234        5.76328256011547        1.77308661079094
H           -0.75850120338403        5.97668109695877        1.34332208799892
H           -1.93881187342052        7.22605893553059        0.93846686386113
H           -1.25758190234092        5.73630163647535       -2.36698295735900
H           -1.33185967223399        7.21840887648860       -1.42216219051628
H           -0.05989552986954        6.04702249947554       -1.09730539711035
H           -4.17642322031047        5.30453496804553       -0.05843322740830
H           -3.67564938198659        6.76973308395555       -0.89868061511878
H           -3.65903486502318        5.21751451358359       -1.74046619557461
H           -0.18632148950611        3.85307422492731       -1.67008150449432
H            0.14805102245102        1.45907867912657       -1.41709260672627
H            0.38203914602878        1.38306659636477        1.88592282448852
H            2.45362160154423        2.60894356982239        2.29029066797448
H            4.87141862656763        2.87404836430685        1.96375287765418
H            6.99489648945072        2.05568053949755        1.03109711193230
H            8.23242646606723        0.39228855012534       -0.28253597865302
H            8.26746607416123       -1.66535054099109       -1.63180068539661
H            6.18544328734657       -2.90746331598183       -2.06064748007477
H            3.75174467800365       -3.14867004111999       -1.77997212756929
H            1.63520275285689       -2.34353313619873       -0.84284756868220
H           -0.37950563597476       -4.45000658557474        1.34611964488222
H           -1.17857233726073       -6.79211409322382        1.27214524385507
H           -3.25540684873676       -7.34274059876328        0.05583253579862
H           -4.50567966303075       -5.56044854090838       -1.10404317543687
H           -3.70396826278315       -3.24221582009609       -1.03902430587759
H           -4.21438555698104       -2.06303416277080        1.50194952928994
H           -6.59889611131578       -1.52378425185777        1.19096259203188
H           -7.28900019383430        0.05296906940952       -0.57848913316583
H           -5.58646418606033        1.07354111128068       -2.04478077834147
H           -3.21150681222840        0.52617761376793       -1.74794793457866
H           -2.92805987096523        1.32787259825182        1.54099346919090
H           -3.28340940150919        3.72118531545620        1.27883189665739
