75
 energy: -109.964757215812 gnorm: 0.000055361004 xtb: 6.7.1 (edcfbbe)
C            3.99523025740964        3.32957792413615        1.59943871232206
C            2.96793629331289        3.69695681570576        0.52572926010073
C            3.69075622224311        3.72536048623723       -0.82779228951521
C            2.40323121451910        5.08744278302158        0.84910379119398
C            1.82202589199670        2.70211300649439        0.44945101959231
C            0.82286112847281        2.87736989655514       -0.50588660890953
C           -0.21555642700986        1.98016278977114       -0.64395665072066
C           -0.28572440059304        0.87163572424204        0.19127223208502
N           -1.29328233793773       -0.09394158010245        0.02730596881333
C           -1.11496473329047       -1.47086821249977       -0.00367882873891
C            0.12916495896988       -2.15091317861349        0.03853465735373
C            0.17886434275880       -3.39005185049880        0.71893253196219
C            1.36276957941474       -3.92540069073288        1.11712839588870
C            2.60715425094295       -3.26422419070274        0.83473015770857
C            3.82364126825505       -3.72945727249599        1.32352730439995
C            5.01434540744315       -3.09206693578399        1.00457857792508
C            5.03326897190917       -1.99774845218927        0.13096614320115
C            6.23795999069818       -1.35203851967388       -0.24926145018996
C            6.22233627211178       -0.30142152420397       -1.14764044812890
C            5.03925237616000        0.13876306013606       -1.70381834944326
C            3.80223775602452       -0.46231594851270       -1.34513280590022
C            2.58654781223551       -0.07612769616466       -1.91571934277293
C            1.39171785720168       -0.65170455538934       -1.50693306236327
C            1.36242400253424       -1.60657715563004       -0.49467035971823
C            2.58934149139701       -2.12404413806773       -0.01108939891651
C            3.80689674453246       -1.52537080721458       -0.40525634225670
N           -2.29182529610355       -2.08385879523502       -0.02695324924458
C           -3.24271020475478       -1.13149240978444       -0.04518987161261
C           -4.65229114502942       -1.48726102892169       -0.05879819674395
C           -5.62947460524009       -0.66826094907069        0.50530111934634
C           -6.95694331379248       -1.05131508643773        0.47799409125064
C           -7.32804657445918       -2.25288086231408       -0.10347408651892
C           -6.35985503088630       -3.08170525509987       -0.64778195733739
C           -5.03160616360897       -2.70536134050594       -0.62325637680386
C           -2.64475823564430        0.13497160199326       -0.01137928429364
C           -3.23649884634729        1.46140755104006       -0.01294198053967
C           -2.83265090380064        2.43351406656114        0.90326185126485
C           -3.40629636915907        3.69031108636178        0.88302165195085
C           -4.38549584046997        3.99744292974061       -0.04747686169342
C           -4.79599658948331        3.03599357502160       -0.95779263641717
C           -4.22881048023905        1.77717072022625       -0.94328638475232
C            0.67503388207869        0.70499801480622        1.17944169302946
C            1.71663433180432        1.60555549820976        1.29618700983978
H            3.54676096377062        3.32910676644380        2.59020347151219
H            4.43093254058386        2.35258776620107        1.40193055236888
H            4.79885680605717        4.06313598357169        1.59674893433920
H            3.02648065246795        4.03656198791132       -1.62915369005431
H            4.52716219626383        4.42007518343241       -0.79022466540344
H            4.07320339077563        2.73440030288320       -1.06100635371804
H            1.71002790578890        5.42202402556422        0.08220804596282
H            1.87548194296141        5.06732431348295        1.80043132893386
H            3.21123294339401        5.81247607969523        0.91828891082102
H            0.85555547246105        3.72360436976756       -1.17484190949488
H           -0.96140576314629        2.12479117133364       -1.41171913467951
H           -0.76211382522591       -3.84648226266142        0.98633422017061
H            1.39042114177819       -4.84143204564121        1.68809037004712
H            3.83644008026831       -4.60112117473920        1.96241705858099
H            5.94627726910869       -3.45343059260894        1.41496109070461
H            7.17057522647441       -1.70398407480036        0.16608348658230
H            7.15245682884350        0.17298222784907       -1.42796572849024
H            5.03813042431900        0.93729364656427       -2.43141990316648
H            2.57825365249738        0.68877600255563       -2.67854417979794
H            0.47144279437836       -0.35455222271066       -1.98714598098222
H           -5.34753764157490        0.25937334140054        0.98063181941002
H           -7.70693508932865       -0.41013616849455        0.91837705219772
H           -8.36767065725809       -2.54543590078626       -0.12463583214119
H           -6.64423095914070       -4.02449904086422       -1.09219129354958
H           -4.26444972403100       -3.34056162853295       -1.03813295061454
H           -2.08135576037782        2.19564911061629        1.64229222019358
H           -3.08883841232354        4.43325592478000        1.59990970853584
H           -4.82978351241790        4.98146259188746       -0.06156767319213
H           -5.55977083596122        3.27038235344303       -1.68456885111812
H           -4.54324608681421        1.02759549632328       -1.65470700696410
H            0.61276150581115       -0.14024898484136        1.84909456907275
H            2.45222503238828        1.42800056414620        2.06260954328433
