  64
  -93.2104547312000       0.283688573104351      !
 C         -0.5257376073       -4.8561878462       -0.4048781925
 C          0.7392582100       -3.9991498576       -0.3081272526
 C          1.5691537866       -4.2202354628       -1.5809093543
 C          1.5384972891       -4.4648382124        0.9182177346
 C          0.4305098237       -2.5186029348       -0.1638383625
 C          1.4912864643       -1.6138068029       -0.0456423317
 C          1.2743384489       -0.2358451918        0.0223517738
 C         -0.0296767150        0.2977796745        0.0255566141
 C         -1.0922097213       -0.6369201669        0.0095238321
 C         -0.8572109497       -2.0079721840       -0.1539896948
 N         -2.3814032739       -0.1353610026        0.0762579267
 C         -3.5822267918       -0.7864248899        0.2847936911
 C         -3.8698541764       -2.0579305851        0.7696378935
 C         -5.1931493312       -2.4381481818        0.8860818073
 C         -6.2333309656       -1.5675014854        0.5520336972
 C         -5.9678704676       -0.2768421430        0.1408423984
 C         -4.6464537913        0.1307444241        0.0206950948
 C         -4.0405416251        1.3887889348       -0.2888423114
 C         -4.5340132196        2.6540279873       -0.6082265528
 C         -3.6082613694        3.6721696301       -0.8225414574
 C         -2.2470067833        3.4694379874       -0.6927714258
 C         -1.6979618572        2.2174823234       -0.3244875446
 C         -2.6504547754        1.1932165856       -0.1991633594
 B         -0.2477532694        1.8026510100       -0.0380955362
 C          1.0176891847        2.6506409587        0.1428238517
 C          1.0335970803        4.0434347840        0.3193383675
 C          2.2004456410        4.7608513525        0.4722622138
 C          3.4261217079        4.1031316323        0.4581543648
 C          3.4628295879        2.7288513344        0.3173551200
 C          2.2810957232        1.9938032435        0.1743278314
 N          2.3620113695        0.6163863793        0.0704997589
 C          3.6589823484        0.0247651400        0.0457504688
 C          4.2658655459       -0.3805473633        1.2281648047
 C          5.5184346185       -0.9670664364        1.1905434132
 C          6.1647936232       -1.1516471325       -0.0208173164
 C          5.5582034704       -0.7473101952       -1.1987228146
 C          4.3061500214       -0.1589849150       -1.1697027953
 H         -1.1417332461       -4.7462674054        0.4847988419
 H         -0.2474442562       -5.9046040054       -0.4908679493
 H         -1.1131229053       -4.5935607088       -1.2817105772
 H          1.0181542697       -3.8753411039       -2.4534067693
 H          1.7882357594       -5.2784396742       -1.7066622764
 H          2.5117513973       -3.6806021490       -1.5378102259
 H          1.7455033957       -5.5305181444        0.8477823123
 H          2.4870281395       -3.9402604515        0.9975616846
 H          0.9709321737       -4.2829002010        1.8285640875
 H          2.5014456481       -1.9894443934       -0.0556647994
 H         -1.6956547016       -2.6571364257       -0.3270078964
 H         -3.0955470909       -2.7319947453        1.1000441216
 H         -5.4279060683       -3.4238288458        1.2591165867
 H         -7.2549618445       -1.9045380020        0.6470756352
 H         -6.7701703978        0.4130015940       -0.0740573896
 H         -5.5938962092        2.8329304500       -0.6985221365
 H         -3.9688199725        4.6565927876       -1.0889187485
 H         -1.5801009631        4.2957870611       -0.8816858840
 H          0.0895586800        4.5627140484        0.3544808376
 H          2.1673441384        5.8330486850        0.6030757828
 H          4.3472549237        4.6557176778        0.5659851462
 H          4.4191989480        2.2274625975        0.3228100204
 H          3.7503800862       -0.2327398850        2.1653328739
 H          5.9903548249       -1.2806137033        2.1095521483
 H          7.1418305424       -1.6098522588       -0.0465293688
 H          6.0598970788       -0.8914363434       -2.1436033426
 H          3.8214647380        0.1597776005       -2.0804057510
  64
  -93.2101930862000       0.215079058308086      !
 C          1.5494136936       -4.4998196134       -0.7543659710
 C          0.7348294817       -3.9892215580        0.4434738826
 C          1.5477433898       -4.1638073941        1.7345295564
 C         -0.5322348902       -4.8410157771        0.5576830126
 C          0.4285468041       -2.5148096434        0.2428792770
 C          1.4905985472       -1.6122695477        0.1177443432
 C          1.2762759114       -0.2368571438        0.0048811679
 C         -0.0273199200        0.2988433768        0.0133922672
 C         -1.0888796167       -0.6365767069        0.0179596453
 C         -0.8593513983       -2.0065794243        0.1902995476
 N         -2.3754574061       -0.1325315575       -0.0665463016
 C         -3.5695514575       -0.7762739819       -0.3253247691
 C         -3.8393595898       -2.0341238933       -0.8528791331
 C         -5.1582943963       -2.4086313053       -1.0250971222
 C         -6.2080576226       -1.5458247623       -0.7015990937
 C         -5.9566837188       -0.2687325501       -0.2411512554
 C         -4.6400649152        0.1336398543       -0.0647467596
 C         -4.0419146587        1.3807072345        0.3024015229
 C         -4.5408885265        2.6338643607        0.6576104192
 C         -3.6187673157        3.6406042939        0.9330615592
 C         -2.2548545191        3.4414881277        0.8246461903
 C         -1.6988005681        2.2050773720        0.4176899902
 C         -2.6498531753        1.1870657791        0.2400560837
 B         -0.2460599247        1.8007011343        0.1223988458
 C          1.0192126821        2.6522467731       -0.0436011420
 C          1.0340805335        4.0516686795       -0.1569661917
 C          2.1932105382        4.7716088304       -0.3492970531
 C          3.4114112930        4.1084560705       -0.4553443354
 C          3.4485436664        2.7299797358       -0.3697486393
 C          2.2775156551        1.9939235456       -0.1585412584
 N          2.3632507059        0.6137962106       -0.0837765764
 C          3.6549809849        0.0189257011       -0.1551148413
 C          4.4683202726       -0.0072394006        0.9721965878
 C          5.7152409450       -0.6020122855        0.9058829300
 C          6.1540914444       -1.1710744688       -0.2789380348
 C          5.3430122290       -1.1440573258       -1.4022974070
 C          4.0947627338       -0.5513250597       -1.3445063562
 H          0.9921499873       -4.3548651416       -1.6774514825
 H          1.7578514797       -5.5613024681       -0.6402717049
 H          2.4972669745       -3.9755491472       -0.8423565642
 H          2.4921226207       -3.6283813355        1.6839802050
 H          1.7625515997       -5.2168858788        1.9027915062
 H          0.9861608736       -3.7852230746        2.5859353140
 H         -0.2559094489       -5.8842617812        0.6965476566
 H         -1.1338453380       -4.5384001458        1.4117315493
 H         -1.1335985081       -4.7723940430       -0.3460392057
 H          2.5003952255       -1.9865028574        0.1629487854
 H         -1.7034189791       -2.6537669248        0.3447122954
 H         -3.0523392212       -2.6988815787       -1.1725876002
 H         -5.3812719229       -3.3825636334       -1.4344562121
 H         -7.2260561080       -1.8771123925       -0.8437596113
 H         -6.7661482789        0.4143558199       -0.0317935106
 H         -5.6022366714        2.8116910685        0.7311347949
 H         -3.9841479051        4.6138812009        1.2318549357
 H         -1.5929407749        4.2596330113        1.0609822500
 H          0.0933387941        4.5757781989       -0.1116800769
 H          2.1587555092        5.8488755860       -0.4272691247
 H          4.3255518112        4.6605727767       -0.6131335196
 H          4.3976839094        2.2256735206       -0.4729460650
 H          4.1147047545        0.4393327291        1.8896670731
 H          6.3448830971       -0.6235595393        1.7827589541
 H          7.1273691764       -1.6353253550       -0.3268248247
 H          5.6836217018       -1.5853414321       -2.3270538044
 H          3.4526396886       -0.5255867059       -2.2123891254
  64
  -93.2099241144000       0.161803251842591      !
 C          2.1431115100       -4.3941310719       -0.4524933459
 C          0.6639849243       -3.9986296228       -0.4653557829
 C         -0.0454249278       -4.7731516389        0.6552148664
 C          0.0711115750       -4.3971258062       -1.8244474988
 C          0.4564745613       -2.5082050266       -0.2535419300
 C          1.5150167758       -1.6073136843       -0.1389270531
 C          1.2929769078       -0.2304706814       -0.0194589333
 C         -0.0108968897        0.3030436489       -0.0075887697
 C         -1.0710268847       -0.6351914847       -0.0064018516
 C         -0.8352146337       -1.9990000520       -0.1892964809
 N         -2.3584310004       -0.1367100214        0.0941794648
 C         -3.5474189348       -0.7890229354        0.3546808906
 C         -3.8067380547       -2.0528018183        0.8727833426
 C         -5.1226009190       -2.4389200997        1.0431203769
 C         -6.1788027776       -1.5806383028        0.7288191301
 C         -5.9374688157       -0.2965159261        0.2828732158
 C         -4.6240299592        0.1172540431        0.1081126872
 C         -4.0341876165        1.3714755221       -0.2482204043
 C         -4.5417038605        2.6265936538       -0.5838822201
 C         -3.6258282696        3.6409880369       -0.8538195378
 C         -2.2605411302        3.4463371340       -0.7615159531
 C         -1.6944609598        2.2070187809       -0.3750860546
 C         -2.6408794017        1.1839815717       -0.1984845726
 B         -0.2369130452        1.8049852403       -0.1033842800
 C          1.0299099878        2.6593590393        0.0416749497
 C          1.0438869971        4.0584712243        0.1550166567
 C          2.2051703845        4.7816182180        0.3236690960
 C          3.4262977921        4.1213991239        0.4046612385
 C          3.4644597535        2.7426674539        0.3195061404
 C          2.2912667619        2.0036350964        0.1317512538
 N          2.3789772260        0.6230971711        0.0561669136
 C          3.6733353373        0.0328607374        0.1199911092
 C          4.1206916597       -0.5356836660        1.3073755525
 C          5.3727731882       -1.1202937962        1.3610421054
 C          6.1807452625       -1.1407729760        0.2356495377
 C          5.7347665191       -0.5731782974       -0.9470370115
 C          4.4837803477        0.0134571727       -1.0094748000
 H          2.6101529752       -4.1344707790        0.4950922751
 H          2.6868702732       -3.9112229124       -1.2613508842
 H          2.2307209632       -5.4703434488       -0.5868544242
 H          0.3334479888       -4.4622660602        1.6266303974
 H          0.1296057695       -5.8409000823        0.5424944635
 H         -1.1185368104       -4.6055337489        0.6364402365
 H          0.5554298977       -3.8400156637       -2.6237077480
 H          0.2217447194       -5.4596840505       -2.0029374717
 H         -0.9954205303       -4.1936597280       -1.8664492071
 H          2.5269633225       -1.9685422849       -0.1950335495
 H         -1.6743404209       -2.6555894039       -0.3427345917
 H         -3.0137481921       -2.7125804414        1.1882981876
 H         -5.3379935908       -3.4181647786        1.4438465928
 H         -7.1941487568       -1.9213189881        0.8676766806
 H         -6.7523977556        0.3827786615        0.0826048054
 H         -5.6042965837        2.8007336171       -0.6467300077
 H         -3.9981043217        4.6164029563       -1.1365662846
 H         -1.6048292121        4.2702428606       -0.9946919953
 H          0.1013841112        4.5806052793        0.1299550669
 H          2.1694463640        5.8587649651        0.4029475676
 H          4.3425758402        4.6752695929        0.5430624939
 H          4.4169630650        2.2413909500        0.4039430507
 H          3.4811836712       -0.5140443215        2.1774597068
 H          5.7193748216       -1.5593970937        2.2844092244
 H          7.1574629092       -1.5979564657        0.2806305551
 H          6.3626533924       -0.5883886833       -1.8252529658
 H          4.1252435832        0.4595638290       -1.9251794463
  64
  -93.2097688810000       0.137292531970559      !
 C         -0.0216258142       -4.7865780389       -0.5925369218
 C          0.6747076304       -3.9929819796        0.5225492367
 C          2.1556577551       -4.3820075456        0.5288899021
 C          0.0717071994       -4.3744436529        1.8824603748
 C          0.4628524324       -2.5062948061        0.2898779476
 C          1.5194309659       -1.6036962611        0.1689900456
 C          1.2945818806       -0.2281287639        0.0429315397
 C         -0.0098823308        0.3036411009        0.0439325865
 C         -1.0674126971       -0.6373733203        0.0339114571
 C         -0.8301719119       -2.0010389043        0.2145092846
 N         -2.3539746141       -0.1388459440       -0.0745134329
 C         -3.5377733820       -0.7863954941       -0.3664584015
 C         -3.7855519332       -2.0426200675       -0.9075815214
 C         -5.0974348472       -2.4228357061       -1.1173530016
 C         -6.1594928653       -1.5666655376       -0.8171837619
 C         -5.9276307709       -0.2910094871       -0.3425968919
 C         -4.6182916958        0.1171652635       -0.1283933827
 C         -4.0347730002        1.3644490261        0.2619510860
 C         -4.5474013312        2.6131614071        0.6132411554
 C         -3.6359075165        3.6210128691        0.9196771150
 C         -2.2691944738        3.4281849715        0.8439200167
 C         -1.6973195580        2.1975920398        0.4391622037
 C         -2.6407365802        1.1772170860        0.2332345235
 B         -0.2376725104        1.8030489867        0.1646979676
 C          1.0284987648        2.6607570839        0.0311156937
 C          1.0410886912        4.0622545587       -0.0444700416
 C          2.1984262153        4.7899552924       -0.2203886850
 C          3.4166293902        4.1321537102       -0.3493463012
 C          3.4563491919        2.7519756324       -0.2983578523
 C          2.2883944651        2.0079769857       -0.0979786136
 N          2.3785835528        0.6262473217       -0.0509520425
 C          3.6644298883        0.0319261589       -0.1917775966
 C          4.5424113932        0.0000833200        0.8860530055
 C          5.7836557908       -0.5929862405        0.7432498537
 C          6.1534591118       -1.1548769441       -0.4681971660
 C          5.2781389377       -1.1223721482       -1.5419868682
 C          4.0352906705       -0.5316516520       -1.4076779790
 H          0.3677387363       -4.4914533847       -1.5649686975
 H         -1.0952963692       -4.6199482169       -0.5880888573
 H          0.1537403726       -5.8520272941       -0.4594981800
 H          2.6306170249       -4.1352949525       -0.4182899062
 H          2.2466626280       -5.4554669666        0.6810382153
 H          2.6897719744       -3.8841655058        1.3351222594
 H          0.2259343347       -5.4336438887        2.0774859261
 H          0.5467271826       -3.8035636294        2.6776954278
 H         -0.9961867654       -4.1751489816        1.9123471276
 H          2.5325363313       -1.9615493717        0.2261326564
 H         -1.6695763967       -2.6596094601        0.3597656768
 H         -2.9850515050       -2.6993702248       -1.2103844312
 H         -5.3048698588       -3.3958624230       -1.5370658883
 H         -7.1716737696       -1.9030117940       -0.9865640396
 H         -6.7463694992        0.3858710634       -0.1498813831
 H         -5.6108397625        2.7869031252        0.6614020380
 H         -4.0125262012        4.5908732615        1.2154025189
 H         -1.6175019912        4.2475578978        1.1030113705
 H          0.0998871278        4.5836697957        0.0157343453
 H          2.1611589435        5.8688363768       -0.2705591643
 H          4.3294123760        4.6893728719       -0.4969552193
 H          4.4063665922        2.2533576376       -0.4181398333
 H          4.2432458048        0.4412315431        1.8252551073
 H          6.4634119300       -0.6191868191        1.5817004127
 H          7.1226050339       -1.6179288196       -0.5754280620
 H          5.5645377736       -1.5577339340       -2.4876668665
 H          3.3431299933       -0.5018957914       -2.2362399484
  64
  -93.2092545644000       7.966790015206204E-002 !
 C         -0.0553261456       -4.8200854409        0.2620375323
 C          0.6816936289       -3.9531140226       -0.7689666121
 C          0.1240172016       -4.2333595724       -2.1724552663
 C          2.1609717326       -4.3479789075       -0.7532607764
 C          0.4676590156       -2.4842763000       -0.4447699767
 C          1.5212807816       -1.5926174110       -0.2421051152
 C          1.2929238424       -0.2216191705       -0.0849327159
 C         -0.0080420470        0.3191699419       -0.0965078524
 C         -1.0635687984       -0.6255135651       -0.1152243745
 C         -0.8243981263       -1.9774577425       -0.3697565697
 N         -2.3481845568       -0.1414449424        0.0421896474
 C         -3.5161832967       -0.8136384368        0.3439571312
 C         -3.7398727984       -2.1074720093        0.8010109523
 C         -5.0414316084       -2.5075124481        1.0373025485
 C         -6.1159262592       -1.6354162653        0.8499469421
 C         -5.9048483049       -0.3264401561        0.4643231568
 C         -4.6062868775        0.1003061096        0.2237616044
 C         -4.0413589479        1.3757317655       -0.0962289424
 C         -4.5772045967        2.6450216228       -0.3071722967
 C         -3.6843630130        3.6814312709       -0.5637025601
 C         -2.3156699682        3.4879462991       -0.5832618595
 C         -1.7136632272        2.2290299714       -0.3423187141
 C         -2.6470621061        1.1931150246       -0.1563361383
 B         -0.2355464508        1.8212352402       -0.1951895858
 C          1.0542839147        2.6633459552       -0.1779881315
 C          1.1112164308        4.0605453537       -0.2988716870
 C          2.2834679993        4.7783284933       -0.1895430949
 C          3.4784139767        4.1176554712        0.0688448929
 C          3.4827741942        2.7403856079        0.1766539282
 C          2.3029581204        2.0039060577        0.0210392304
 N          2.3764403807        0.6232263551        0.0695138483
 C          3.6324968137        0.0158496240        0.3537602767
 C          3.8893885039       -0.4455122958        1.6396311535
 C          5.1016296863       -1.0462069535        1.9259909450
 C          6.0572509529       -1.1936413042        0.9336643438
 C          5.7988106971       -0.7378019396       -0.3493497780
 C          4.5905552048       -0.1329328248       -0.6435299547
 H         -1.1287689341       -4.6566409647        0.2240519735
 H          0.2925793028       -4.5892618938        1.2669404772
 H          0.1303852475       -5.8740478307        0.0663815257
 H         -0.9404383162       -4.0208000644       -2.2252360825
 H          0.2763711047       -5.2779588276       -2.4357031423
 H          0.6313361253       -3.6135347237       -2.9089363312
 H          2.2551445480       -5.4078366468       -0.9808685672
 H          2.7231743460       -3.7944986637       -1.5020224516
 H          2.6033929620       -4.1732659426        0.2251788410
 H          2.5361024398       -1.9503230994       -0.2626235626
 H         -1.6628463767       -2.6203709804       -0.5776358152
 H         -2.9279098164       -2.7820507141        1.0225723945
 H         -5.2292579447       -3.5097095305        1.3927541959
 H         -7.1193719817       -1.9864147979        1.0400505310
 H         -6.7309811247        0.3609127748        0.3607828298
 H         -5.6419888280        2.8146083897       -0.2796013710
 H         -4.0748197256        4.6739924648       -0.7430849257
 H         -1.6897437699        4.3414104852       -0.7852352854
 H          0.1944703756        4.5986401383       -0.4684275318
 H          2.2721046683        5.8546462884       -0.2856010693
 H          4.4000773510        4.6683176210        0.1810061965
 H          4.4167863466        2.2351187675        0.3706460021
 H          3.1358659286       -0.3258465609        2.4039211960
 H          5.3009670942       -1.3988822364        2.9267596166
 H          7.0025037352       -1.6631616312        1.1596485040
 H          6.5414930456       -0.8539191501       -1.1243364947
 H          4.3790441247        0.2290483848       -1.6387894206
  64
  -93.2088825114000       5.374024600540001E-002 !
 C          0.2119778020       -4.5878331857       -1.3252818354
 C          0.7028843969       -4.0198951317        0.0136044490
 C          2.1766821410       -4.3989877945        0.1850763941
 C         -0.0870329482       -4.6563129877        1.1673750955
 C          0.4827505065       -2.5161354465        0.0355954811
 C          1.5322418673       -1.6037717973        0.1234118627
 C          1.2964478020       -0.2245729820        0.1022168438
 C         -0.0110395462        0.2980293669        0.1112808090
 C         -1.0706708404       -0.6421071842        0.0787325840
 C         -0.8107545598       -2.0098980395       -0.0385623545
 N         -2.3667567292       -0.1502510806        0.0887557865
 C         -3.5771210489       -0.8133911904        0.1959789815
 C         -3.8982595564       -2.1043019307        0.6026314632
 C         -5.2248708156       -2.4921988174        0.6016435932
 C         -6.2429638773       -1.6108044773        0.2319154364
 C         -5.9525871980       -0.3012648642       -0.0920572529
 C         -4.6273756448        0.1112348548       -0.0960616200
 C         -4.0119430535        1.3838344650       -0.3090229787
 C         -4.4992258986        2.6602085046       -0.5910983156
 C         -3.5730781366        3.6948759421       -0.7010636134
 C         -2.2194175324        3.4910700113       -0.5149219177
 C         -1.6789144959        2.2225702584       -0.1908939189
 C         -2.6287913534        1.1882822963       -0.1508267473
 B         -0.2341212091        1.8027208200        0.0978961589
 C          1.0287614942        2.6509272012        0.2990871737
 C          1.0391674696        4.0306466865        0.5552451108
 C          2.2059350546        4.7593246923        0.6493070355
 C          3.4328089463        4.1278348725        0.4754750355
 C          3.4766635079        2.7621562792        0.2665488444
 C          2.2978601255        2.0099537553        0.2181645287
 N          2.3806876470        0.6357703262        0.0784166591
 C          3.6635606184        0.0537544498       -0.1319997435
 C          4.5331334594       -0.1623430787        0.9311661395
 C          5.7682099844       -0.7409073289        0.7005441892
 C          6.1395668338       -1.1049205539       -0.5838194050
 C          5.2725461411       -0.8884669728       -1.6426926253
 C          4.0357354912       -0.3110417470       -1.4207398234
 H         -0.8447633624       -4.3862277229       -1.4786396818
 H          0.3597350718       -5.6654109911       -1.3513058264
 H          0.7667386157       -4.1428171697       -2.1486775183
 H          2.7819786068       -4.0116453190       -0.6316068105
 H          2.2735180846       -5.4827614641        0.1880691268
 H          2.5692146069       -4.0242952532        1.1278748259
 H          0.1055516823       -5.7262223232        1.2098125334
 H          0.2103192021       -4.2142287515        2.1161984504
 H         -1.1567115930       -4.5125098709        1.0438403081
 H          2.5463959283       -1.9590563471        0.1767465220
 H         -1.6284690201       -2.6862048059       -0.2128484743
 H         -3.1538916110       -2.7955267771        0.9641427376
 H         -5.4798794235       -3.4952008474        0.9097755636
 H         -7.2666683760       -1.9545663342        0.2313228180
 H         -6.7384043011        0.3990069050       -0.3323512809
 H         -5.5546580772        2.8365215024       -0.7265660329
 H         -3.9279348544        4.6899581901       -0.9329829588
 H         -1.5476241254        4.3273003372       -0.6271998410
 H          0.0936536970        4.5297089297        0.6955279695
 H          2.1706963939        5.8217101209        0.8439577687
 H          4.3514765279        4.6936654076        0.5118545607
 H          4.4360805959        2.2827306915        0.1438405163
 H          4.2328295843        0.1244804162        1.9280824906
 H          6.4425777659       -0.9092637351        1.5266905474
 H          7.1040014508       -1.5566509878       -0.7594998219
 H          5.5597390401       -1.1699206772       -2.6447021972
 H          3.3488686793       -0.1403868137       -2.2364429042
  64
  -93.2085394719000       3.738088776724462E-002 !
 C          0.5029636378       -4.2881039426       -1.9302389733
 C          0.6834812540       -4.0003403675       -0.4325272008
 C          2.0930212878       -4.4300361375       -0.0098383873
 C         -0.3228332607       -4.8357920039        0.3716674537
 C          0.4498681193       -2.5155093781       -0.2058669630
 C          1.5084841165       -1.6101341483       -0.1111851302
 C          1.2874375620       -0.2320394486       -0.0137219625
 C         -0.0167674912        0.3003735623        0.0031794214
 C         -1.0755080282       -0.6386842002        0.0176304889
 C         -0.8408844347       -2.0048336581       -0.1573837928
 N         -2.3625203984       -0.1403527329        0.1220292864
 C         -3.5480450198       -0.7900924493        0.4028087016
 C         -3.7998938768       -2.0500647781        0.9340068193
 C         -5.1133911875       -2.4325921863        1.1289429956
 C         -6.1736074571       -1.5751771771        0.8253580674
 C         -5.9383796484       -0.2957245325        0.3628870438
 C         -4.6275295157        0.1148951257        0.1631132208
 C         -4.0421049298        1.3650953980       -0.2141205510
 C         -4.5526804980        2.6165466833       -0.5590887235
 C         -3.6395852980        3.6270623058       -0.8520165168
 C         -2.2733354870        3.4339022866       -0.7697146295
 C         -1.7041521213        2.1993432945       -0.3732400829
 C         -2.6482947728        1.1777632497       -0.1786929006
 B         -0.2449372515        1.8011044891       -0.1049435674
 C          1.0210233999        2.6580395249        0.0286078813
 C          1.0338960652        4.0575571538        0.1376051747
 C          2.1959092726        4.7822700071        0.2935049411
 C          3.4189015170        4.1239323033        0.3629957309
 C          3.4583959976        2.7450588366        0.2805271364
 C          2.2839143736        2.0042758356        0.1091963246
 N          2.3725962639        0.6237756640        0.0379264566
 C          3.6706943635        0.0379716504        0.0649955650
 C          4.1685568193       -0.5029932126        1.2448342057
 C          5.4237869921       -1.0835345941        1.2586432385
 C          6.1838805181       -1.1271497120        0.1009909123
 C          5.6873297207       -0.5867900133       -1.0741932374
 C          4.4329992753       -0.0044028665       -1.0966253304
 H          1.2211572924       -3.7160280332       -2.5141037247
 H         -0.4970596339       -4.0123920266       -2.2569899654
 H          0.6547437253       -5.3460731983       -2.1332972813
 H          2.8533293656       -4.0042918466       -0.6600235872
 H          2.1786068944       -5.5127592906       -0.0707182305
 H          2.2964542416       -4.1288272940        1.0155214096
 H         -0.0680671117       -5.8910742777        0.3018263802
 H         -0.3043214429       -4.5468917526        1.4205194519
 H         -1.3352770692       -4.7192095597       -0.0047044237
 H          2.5199120415       -1.9729189252       -0.1669411394
 H         -1.6814228760       -2.6572599702       -0.3165675157
 H         -3.0024209816       -2.7092528225        1.2393232504
 H         -5.3236018531       -3.4081789189        1.5411866304
 H         -7.1869619928       -1.9128960692        0.9846881255
 H         -6.7557716416        0.3826538932        0.1695142996
 H         -5.6158533414        2.7905710673       -0.6122524878
 H         -4.0147966172        4.5987044897       -1.1436880857
 H         -1.6191866611        4.2545798989       -1.0184878263
 H          0.0902614009        4.5781314855        0.1193163298
 H          2.1597313958        5.8595556974        0.3704345691
 H          4.3357042451        4.6796344189        0.4898613319
 H          4.4123820278        2.2447800544        0.3542050679
 H          3.5660714502       -0.4634799403        2.1402020472
 H          5.8100864804       -1.5016685006        2.1759992382
 H          7.1629033046       -1.5815061662        0.1148009428
 H          6.2773243191       -0.6211310508       -1.9777429556
 H          4.0344480362        0.4200546596       -2.0060827212
  64
  -93.2083731288000       3.134755084970588E-002 !
 C          2.0476659387       -4.4418951106       -0.1516639708
 C          0.6879606682       -4.0018050150        0.4056006107
 C          0.6578820053       -4.2605727082        1.9190898353
 C         -0.3950963184       -4.8499458117       -0.2751301337
 C          0.4425206221       -2.5187615989        0.1793569615
 C          1.5025296924       -1.6145915031        0.0829767602
 C          1.2854758743       -0.2366869440       -0.0190377701
 C         -0.0178684255        0.2990911956       -0.0167025090
 C         -1.0796148418       -0.6367522548       -0.0182460596
 C         -0.8469270335       -2.0053403434        0.1425278041
 N         -2.3673438750       -0.1342364511       -0.0934449890
 C         -3.5616761017       -0.7797025211       -0.3473870862
 C         -3.8319880151       -2.0367612401       -0.8767168856
 C         -5.1514457305       -2.4155079405       -1.0358086689
 C         -6.2007850471       -1.5572364754       -0.6992984124
 C         -5.9492628500       -0.2800060990       -0.2392996677
 C         -4.6323182807        0.1263438099       -0.0748178146
 C         -4.0345176471        1.3732837534        0.2936253211
 C         -4.5338656723        2.6234618854        0.6585163713
 C         -3.6118018577        3.6299984216        0.9361470167
 C         -2.2483196093        3.4335943208        0.8215025731
 C         -1.6916465418        2.2004036756        0.4043098424
 C         -2.6425759079        1.1827444668        0.2226982190
 B         -0.2391262776        1.7997860553        0.1055360635
 C          1.0263844898        2.6538249800       -0.0467229942
 C          1.0403426087        4.0539689843       -0.1494155799
 C          2.1995825055        4.7763969010       -0.3320979844
 C          3.4179145556        4.1146273026       -0.4419759970
 C          3.4557136308        2.7355058745       -0.3658340804
 C          2.2854279140        1.9971545881       -0.1584820269
 N          2.3730326196        0.6160185455       -0.0866109863
 C          3.6691338541        0.0292941295       -0.1236063597
 C          4.4719276242        0.0577449830        1.0115122817
 C          5.7259539420       -0.5243208602        0.9815783329
 C          6.1831253785       -1.1365500232       -0.1744212716
 C          5.3829867634       -1.1644932677       -1.3055119505
 C          4.1283061843       -0.5835207901       -1.2845344675
 H          2.8717561007       -4.0247666379        0.4217457228
 H          2.1532303089       -4.1381787750       -1.1910040840
 H          2.1306348672       -5.5254642298       -0.1015947804
 H          1.4255585086       -3.6732002043        2.4185177532
 H          0.8355616477       -5.3135227339        2.1272668481
 H         -0.3077808491       -3.9824640809        2.3356972544
 H         -0.1301318603       -5.9034307836       -0.2167247604
 H         -1.3623597187       -4.7310109835        0.2054517094
 H         -0.4879816666       -4.5780308911       -1.3245727082
 H          2.5125780825       -1.9807735111        0.1418973060
 H         -1.6875453575       -2.6562035689        0.3042858611
 H         -3.0460117398       -2.6975657801       -1.2071515509
 H         -5.3752672961       -3.3892071324       -1.4452777662
 H         -7.2190062803       -1.8921306534       -0.8309256290
 H         -6.7589661662        0.3997345420       -0.0200663035
 H         -5.5950826698        2.7994633234        0.7377414746
 H         -3.9774968871        4.6010070472        1.2417211479
 H         -1.5865981261        4.2509986610        1.0608287752
 H          0.0990451528        4.5769560351       -0.1038105936
 H          2.1646911838        5.8542702885       -0.4013432840
 H          4.3319131207        4.6680565305       -0.5960381472
 H          4.4052108194        2.2331549924       -0.4743958277
 H          4.1045081628        0.5378645507        1.9062932739
 H          6.3470300723       -0.5018634411        1.8643709969
 H          7.1621570486       -1.5905758156       -0.1941426899
 H          5.7381366274       -1.6387542781       -2.2080754336
 H          3.4958128259       -0.5991067479       -2.1597821735
