  72
       -114.82994628
 N         -0.0624089539       -0.8772893557        0.8381267333
 C         -0.0324311256        0.2684660489        0.6549634941
 C         -0.0090359813        1.6234410713        0.3938318991
 C         -1.2383847280        2.3662864475        0.3506433070
 C         -2.5207840630        1.7004038104        0.2079485435
 C         -2.6607654335        0.5948389100       -0.6412537538
 C         -3.8614436942       -0.0658310682       -0.7509476461
 C         -4.9685471669        0.3594468888       -0.0130733845
 N         -6.1803586120       -0.3296502187       -0.1044877320
 C         -7.4235099286        0.2374819509       -0.2972433750
 C         -7.7680753527        1.5676945444       -0.4966546608
 C         -9.1034874537        1.8660031615       -0.6931215982
 C        -10.0767391071        0.8699922649       -0.7044386137
 C         -9.7363065937       -0.4598178145       -0.5368782963
 C         -8.4029150909       -0.7832679655       -0.3367984871
 C         -7.7033457473       -2.0262888598       -0.1535113073
 C         -8.1130770248       -3.3492675189       -0.0813271955
 C         -7.1585305603       -4.3257210402        0.1368017205
 C         -5.8162664237       -3.9925571296        0.3013104839
 C         -5.3838970139       -2.6812200220        0.2339210370
 C         -6.3338368272       -1.6997338499       -0.0159363487
 C         -4.8476956899        1.4747621850        0.8189498222
 C         -3.6455796774        2.1356419279        0.9211245146
 C         -1.1551592194        3.7397313421        0.4411193726
 N          0.0034974945        4.3931862015        0.4742036228
 C          1.1481950699        3.7359593262        0.4528869089
 C          1.2379492341        2.3557588311        0.3711437462
 C          2.5122025752        1.6972666702        0.2220489701
 C          2.6336595392        0.5217604588       -0.5414863804
 C          3.8322195185       -0.1384045311       -0.6448146896
 C          4.9704730330        0.3572911382        0.0004332912
 N          6.1838558768       -0.3255386189       -0.0880693255
 C          7.4098168357        0.2353832645       -0.3830651749
 C          7.7255326491        1.5461019057       -0.7154517273
 C          9.0465097599        1.8401352875       -0.9976481272
 C         10.0328246926        0.8574810757       -0.9640269029
 C          9.7197544867       -0.4559080288       -0.6639474467
 C          8.4014727253       -0.7746660828       -0.3763650706
 C          7.7280740003       -2.0040934817       -0.0547031025
 C          8.1593636296       -3.3106046590        0.1180388296
 C          7.2287498374       -4.2736822477        0.4635092182
 C          5.8896159425       -3.9416849246        0.6542435864
 C          5.4359526812       -2.6463919893        0.4880672672
 C          6.3604957847       -1.6809831393        0.1118718168
 C          4.8731042260        1.5428752206        0.7380162801
 C          3.6715621426        2.1979496336        0.8431708717
 H         -1.8174964161        0.2647173982       -1.2280896435
 H         -3.9617024904       -0.9025349490       -1.4257236594
 H         -7.0190013298        2.3443799249       -0.5121043943
 H         -9.3974572320        2.8937663120       -0.8451335111
 H        -11.1099755404        1.1432184044       -0.8570989490
 H        -10.4890404922       -1.2328987836       -0.5651172688
 H         -9.1559863600       -3.6063564285       -0.1879690646
 H         -7.4564194721       -5.3618580247        0.1942419589
 H         -5.0970481321       -4.7743369492        0.4927565331
 H         -4.3451917513       -2.4321661046        0.3862395393
 H         -5.6938862153        1.7895560425        1.4113444715
 H         -3.5545515330        2.9752120002        1.5939965718
 H         -2.0413399139        4.3572176632        0.4115864324
 H          2.0366728958        4.3505526974        0.4146886996
 H          1.7728306639        0.1395423376       -1.0673503546
 H          3.9114148068       -1.0284426493       -1.2508271309
 H          6.9646912533        2.3095794900       -0.7674049301
 H          9.3182376279        2.8529826338       -1.2547327720
 H         11.0542351445        1.1269286542       -1.1870219929
 H         10.4820776158       -1.2200211406       -0.6572057941
 H          9.2004046009       -3.5653617693       -0.0100736912
 H          7.5434924873       -5.2974661700        0.5991334685
 H          5.1899573385       -4.7112552702        0.9433200532
 H          4.4007278943       -2.3959027424        0.6603613315
 H          5.7419520685        1.9122346528        1.2625638995
 H          3.6047258098        3.0861687544        1.4531140473
