  106
       -174.59237126
 O          2.1974402702        3.7591090572       -0.5326203742
 C          1.1132175123        3.3247415162       -0.2400808567
 C          0.6776138111        1.9175384723       -0.1013502474
 C         -0.7049430874        1.9070348338        0.1023536301
 C         -1.4229090264        0.7233550551        0.1840729901
 N         -2.8012198167        0.7157572944        0.3505607957
 C         -3.5042237904       -0.0427631136        1.2721962315
 C         -3.0375723460       -0.7215967403        2.3857568630
 C         -3.9588597838       -1.4111543673        3.1514465971
 C         -5.3144600131       -1.3983182671        2.8375247548
 C         -5.7905255107       -0.6667223743        1.7665401467
 C         -4.8821809068        0.0251641119        0.9785660192
 C         -5.0150342529        0.8822840868       -0.1682049815
 C         -6.1025182464        1.3038981892       -0.9196875397
 C         -5.8767064597        2.1224789047       -2.0088169384
 C         -4.5857610579        2.5040322380       -2.3617644873
 C         -3.4874477006        2.0915239030       -1.6306657381
 C         -3.7127178224        1.2956442312       -0.5197833233
 C         -0.6922210197       -0.4891102106        0.0777583654
 N         -1.3761495279       -1.7045204947        0.1402672207
 C         -1.1769879187       -2.7184499615        1.0637052333
 C         -0.2596001584       -2.8039830313        2.0983655525
 C         -0.2898805335       -3.9319602506        2.8966449814
 C         -1.2260525897       -4.9407821720        2.6917933263
 C         -2.1725013777       -4.8373256600        1.6912969092
 C         -2.1539310835       -3.7184379891        0.8712097004
 C         -2.9836036810       -3.2825888929       -0.2180316826
 C         -4.0871769966       -3.8291682970       -0.8569886715
 C         -4.6471969042       -3.1408451482       -1.9155429862
 C         -4.0974028835       -1.9432502370       -2.3624789248
 C         -2.9934589045       -1.3854572255       -1.7461990049
 C         -2.4685599763       -2.0411049785       -0.6437454625
 C          0.7018688941       -0.4784829419       -0.0810829756
 N          1.4028361719       -1.6837793421       -0.1492204388
 C          1.2173560650       -2.6955256248       -1.0777976665
 C          0.3037022533       -2.7857669721       -2.1154137363
 C          0.3497918486       -3.9083823999       -2.9203802629
 C          1.2969012156       -4.9075029258       -2.7181650230
 C          2.2388815979       -4.7991247545       -1.7140087474
 C          2.2053819926       -3.6850021357       -0.8879137155
 C          3.0277653207       -3.2446164852        0.2050129124
 C          4.1362771114       -3.7812189355        0.8439138255
 C          4.6865405246       -3.0908672053        1.9062047511
 C          4.1227178850       -1.9011380600        2.3567189016
 C          3.0135483791       -1.3534406722        1.7407865579
 C          2.4978011543       -2.0109021973        0.6350880572
 C          1.4142387835        0.7453209065       -0.1824386527
 N          2.7932062390        0.7602376449       -0.3424010261
 C          3.5132275547        0.0112365073       -1.2586782952
 C          3.0637887305       -0.6738924302       -2.3754291677
 C          3.9992621024       -1.3542519430       -3.1320605700
 C          5.3518308041       -1.3256597259       -2.8064853641
 C          5.8106217403       -0.5859318444       -1.7335134459
 C          4.8878819854        0.0970686505       -0.9546237138
 C          5.0008756219        0.9571629484        0.1920632003
 C          6.0773674164        1.3948063794        0.9501994952
 C          5.8329778407        2.2113193302        2.0368738694
 C          4.5344500925        2.5747375182        2.3810616446
 C          3.4468693772        2.1461541217        1.6431222919
 C          3.6905824090        1.3529015689        0.5342344501
 C         -1.1619914095        3.3076711352        0.2382312708
 O         -2.2521273053        3.7261744950        0.5316803046
 N         -0.0306256720        4.0900657119       -0.0033484978
 C         -0.0424778611        5.5059812432       -0.0077103550
 C          1.0127245181        6.2074806535        0.5618718126
 C          0.9977664729        7.5902039683        0.5479722147
 C         -0.0660288719        8.2730798244       -0.0170678910
 C         -1.1178375278        7.5684758639       -0.5777606121
 C         -1.1093350411        6.1856565614       -0.5821364466
 H         -1.9934314862       -0.7090586345        2.6587844857
 H         -3.6166857763       -1.9659376029        4.0121951983
 H         -6.0038724261       -1.9531111281        3.4560646291
 H         -6.8463781457       -0.6279427697        1.5463489845
 H         -7.1017397229        0.9920535974       -0.6566222973
 H         -6.7095488877        2.4669119516       -2.6036028865
 H         -4.4372648374        3.1324660848       -3.2275597288
 H         -2.4894055661        2.3798385687       -1.9277427181
 H          0.4513117259       -2.0173858607        2.2966033393
 H          0.4257284866       -4.0248608826        3.6998612262
 H         -1.2183417221       -5.8070774205        3.3360888916
 H         -2.9169237404       -5.6055541642        1.5489762888
 H         -4.4942874413       -4.7741915891       -0.5313079783
 H         -5.5141915640       -3.5428151304       -2.4179217143
 H         -4.5372158377       -1.4376914472       -3.2088984736
 H         -2.5608397576       -0.4704450891       -2.1228075854
 H         -0.4160266178       -2.0063417284       -2.3105457997
 H         -0.3617785858       -4.0048377174       -3.7267596353
 H          1.3015239881       -5.7698390533       -3.3678009254
 H          2.9918788352       -5.5594957717       -1.5741933613
 H          4.5540237032       -4.7206687233        0.5160223629
 H          5.5562539246       -3.4855598847        2.4094394904
 H          4.5551424099       -1.3940999588        3.2060981041
 H          2.5702227706       -0.4446129600        2.1199095750
 H          2.0219404208       -0.6733264506       -2.6572310420
 H          3.6705737133       -1.9145939593       -3.9944373167
 H          6.0525449306       -1.8748704207       -3.4172625585
 H          6.8640465107       -0.5348001554       -1.5045349297
 H          7.0825539100        1.0966265866        0.6940634881
 H          6.6569247326        2.5683528537        2.6365909106
 H          4.3714704123        3.2020172902        3.2450874142
 H          2.4429987586        2.4208995370        1.9333522620
 H          1.8417956005        5.6751897690        1.0005822810
 H          1.8203992696        8.1350717421        0.9862748889
 H         -0.0752926085        9.3527438505       -0.0205439800
 H         -1.9489603885        8.0962632742       -1.0206401255
 H         -1.9288439016        5.6365008016       -1.0178476863
  106
       -174.59161565
 O          2.2173650714        3.7655365927       -0.4765730095
 C          1.1200544412        3.3324162276       -0.2355745250
 C          0.6785196305        1.9260739995       -0.1067609813
 C         -0.7058926150        1.9186134859        0.0878422980
 C         -1.4244138953        0.7356310371        0.1758267991
 N         -2.8004019928        0.7211553808        0.3631114592
 C         -3.4721113313       -0.0365019304        1.3089370312
 C         -2.9708556782       -0.6891070169        2.4231108965
 C         -3.8634450229       -1.3844487195        3.2170236539
 C         -5.2246605794       -1.4026285737        2.9289390636
 C         -5.7354387463       -0.6965219187        1.8567426615
 C         -4.8562927682        0.0012578687        1.0412708776
 C         -5.0263942544        0.8382370143       -0.1153780158
 C         -6.1360919430        1.2276361398       -0.8515054748
 C         -5.9467299131        2.0337577316       -1.9567010751
 C         -4.6704442411        2.4354572221       -2.3391981831
 C         -3.5503561265        2.0553524494       -1.6237139559
 C         -3.7390632486        1.2707677335       -0.4982373878
 C         -0.6941715347       -0.4780937420        0.0732281308
 N         -1.3797185509       -1.6922071917        0.1398696483
 C         -1.1824729092       -2.7046995564        1.0655163713
 C         -0.2602196606       -2.7941136874        2.0954454576
 C         -0.2940019204       -3.9196968040        2.8969586917
 C         -1.2376903990       -4.9228860535        2.6995733570
 C         -2.1880621000       -4.8159639570        1.7032166275
 C         -2.1662425569       -3.6993530677        0.8802119062
 C         -2.9977436064       -3.2624060950       -0.2071745726
 C         -4.1062304794       -3.8051129198       -0.8409904079
 C         -4.6649637356       -3.1179144467       -1.9009399279
 C         -4.1091856176       -1.9256303031       -2.3545089924
 C         -3.0006180840       -1.3716538523       -1.7430354252
 C         -2.4770602237       -2.0255388126       -0.6389658208
 C          0.6995685528       -0.4701034113       -0.0859087395
 N          1.3975628774       -1.6767661995       -0.1600319629
 C          1.2116686233       -2.6801435282       -1.0978940685
 C          0.2918919413       -2.7656252120       -2.1303651994
 C          0.3381805448       -3.8806454770       -2.9458065231
 C          1.2918553648       -4.8764502205       -2.7595317750
 C          2.2399486225       -4.7723429764       -1.7606677866
 C          2.2058003115       -3.6664242428       -0.9238477427
 C          3.0322422119       -3.2333513060        0.1689092798
 C          4.1484738290       -3.7697402006        0.7942956001
 C          4.7015196605       -3.0874512268        1.8604036459
 C          4.1319240731       -1.9076160546        2.3290700718
 C          3.0151183789       -1.3604811284        1.7265744009
 C          2.4980064715       -2.0074281939        0.6153662657
 C          1.4142272203        0.7529328479       -0.1826803771
 N          2.7935812526        0.7628954449       -0.3432888974
 C          3.5060737025        0.0173146419       -1.2682645976
 C          3.0496666479       -0.6496836711       -2.3931674477
 C          3.9785800315       -1.3282939558       -3.1594795512
 C          5.3315291614       -1.3163296117       -2.8344472458
 C          5.7974200236       -0.5966960187       -1.7509132631
 C          4.8814490935        0.0843318309       -0.9624546024
 C          5.0026832142        0.9257850707        0.1970658616
 C          6.0827245858        1.3360145841        0.9654381386
 C          5.8456888148        2.1366137260        2.0654520003
 C          4.5512586962        2.5129579835        2.4111010072
 C          3.4602092432        2.1120403530        1.6629032981
 C          3.6967741129        1.3324665161        0.5429848345
 C         -1.1633725911        3.3210550127        0.2043617812
 O         -2.2648875853        3.7441709776        0.4440307389
 N         -0.0263450737        4.0998185182       -0.0207737197
 C         -0.0351845645        5.5164189809       -0.0323798726
 C         -0.7589254728        6.2109646986        0.9286561388
 C         -0.7687214235        7.5937529380        0.9067881061
 C         -0.0526657959        8.2836630097       -0.0566968877
 C          0.6719417876        7.5859990003       -1.0082289607
 C          0.6795587261        6.2030655147       -1.0057403411
 H         -1.9217609111       -0.6525214564        2.6745005964
 H         -3.4939626084       -1.9194505615        4.0789857024
 H         -5.8910546022       -1.9613971695        3.5687399188
 H         -6.7958594398       -0.6815822446        1.6567406007
 H         -7.1238390759        0.9009698054       -0.5640792859
 H         -6.7973456336        2.3536320771       -2.5398940560
 H         -4.5507399298        3.0558883501       -3.2149298365
 H         -2.5647933394        2.3618941527       -1.9419195567
 H          0.4578246344       -2.0125796353        2.2876008957
 H          0.4254046425       -4.0154636927        3.6964324300
 H         -1.2323691131       -5.7876417232        3.3459768510
 H         -2.9381918818       -5.5797107323        1.5664488037
 H         -4.5176012486       -4.7465741577       -0.5108743281
 H         -5.5350766977       -3.5170776501       -2.3999160978
 H         -4.5477009995       -1.4212695955       -3.2023182361
 H         -2.5632991460       -0.4609289827       -2.1244823665
 H         -0.4329420979       -1.9883259663       -2.3142602240
 H         -0.3792011313       -3.9738144462       -3.7474113060
 H          1.2949908085       -5.7339193859       -3.4155539884
 H          2.9966086756       -5.5309727666       -1.6313523247
 H          4.5705499186       -4.7023162082        0.4526312759
 H          5.5778276495       -3.4813527759        2.3526522817
 H          4.5661445264       -1.4074688971        3.1816266915
 H          2.5678362849       -0.4594000203        2.1192594450
 H          2.0072855642       -0.6374786858       -2.6732386967
 H          3.6444000356       -1.8743008436       -4.0289336702
 H          6.0270192491       -1.8628343522       -3.4535483982
 H          6.8512547106       -0.5589718071       -1.5212292246
 H          7.0845038626        1.0281154857        0.7074158390
 H          6.6723562133        2.4709925862        2.6743455805
 H          4.3938720384        3.1291994216        3.2838346637
 H          2.4598727581        2.3987931577        1.9526051004
 H         -1.3164363234        5.6728352826        1.6783667225
 H         -1.3355415627        8.1330896177        1.6507453132
 H         -0.0605524387        9.3632441106       -0.0669716847
 H          1.2321558576        8.1192486017       -1.7615751790
 H          1.2438769875        5.6589941853       -1.7459135575
