91
 energy: -144.918211275095 gnorm: 0.000077848562 xtb: 6.7.1 (edcfbbe)
N           -9.87957012961970       -6.67947910979377       -0.11621322233897
C           -8.90228171041209       -6.07963628139062       -0.09746352375488
C           -7.69897861651400       -5.34035047335582       -0.07557428360286
C           -7.60020501155570       -4.18709372026387        0.70439931126426
C           -6.42319138987267       -3.46921860230023        0.72010431917651
C           -5.32201766185066       -3.88118541723094       -0.03196368560062
C           -4.06905908482496       -3.11533314764735       -0.00998912835922
C           -2.83523438412955       -3.78083877719904        0.03503875081106
C           -1.67046769324432       -3.06056352659490        0.04855872180061
C           -1.69843094128803       -1.66181831614261        0.01306793983576
C           -2.92662634505495       -0.96241841384674       -0.01998862656946
C           -4.09634902358163       -1.73184440951995       -0.03476196035708
C           -2.93953254277085        0.49101977486892       -0.01828086731512
C           -4.13770211132451        1.21098006665534        0.02740351684538
C           -4.17827138420112        2.59291688888898        0.08146369507316
C           -5.46287040166362        3.30131326708998        0.12779062835289
C           -6.53604936909740        2.88001842096146       -0.65896579749117
C           -7.74362776944278        3.54431728802297       -0.62367473116350
C           -7.90218254378620        4.65136162102654        0.21146490016018
C           -9.13616096774827        5.33755902630300        0.25248142812808
N          -10.13698414677402        5.89639412543848        0.28635543884688
C           -6.83722952406446        5.08044514028421        1.00522362318252
C           -5.63325103282492        4.41054385182907        0.95751942807639
C           -2.97173184778382        3.30271687696876        0.10648747301214
C           -1.77709412915668        2.63444206909002        0.04717273366551
C           -1.72626907056601        1.23453771174850       -0.03351385827705
C           -0.51517756483050        0.49339057620019       -0.09092509539444
C           -0.49968088174542       -0.89993418610045       -0.01387738663808
N            0.77855940102218       -1.35723606048970        0.00189065851145
C            1.54335274388857       -0.29693047578893       -0.07944408255755
C            2.99330819402557       -0.35623374840712       -0.09322169449983
C            3.78365670759740        0.50706603127020       -0.85196350069530
C            5.15751116497160        0.41600638303685       -0.81228159935640
C            5.78796057541122       -0.53848041233225       -0.01082196907864
N            7.17774072594432       -0.60320786360778        0.05122092010510
C            7.94150204111136        0.56824383408537       -0.03153199150154
C            9.15946420019602        0.56992607372098       -0.71041163122836
C            9.91473634738691        1.72430414428499       -0.78175291072561
C            9.46795360807152        2.89350556911394       -0.18829625072954
C            8.25703378454297        2.89797239903430        0.48443752376116
C            7.49882773154707        1.74659154870064        0.56916733851297
C            7.82177016399949       -1.83989802466038        0.20142422082200
C            8.95070527903513       -1.95258751351696        1.01140356320124
C            9.58814484038842       -3.17040603567293        1.14932165935382
C            9.10840335786009       -4.29164338693026        0.49242374155987
C            7.98450465099173       -4.18501549431636       -0.31035618894419
C            7.34511389027907       -2.96985261199216       -0.46159758367524
C            4.99550219048582       -1.42757281421434        0.72067029728600
C            3.62296954928990       -1.34018568130334        0.67179739086256
N            0.80819179226499        0.86838168373505       -0.14248526362882
C            1.35780083466651        2.16228210061703       -0.23404112677348
C            2.16881748308122        2.63729698748528        0.78984525780523
C            2.74542760559546        3.88971722337126        0.68089378998324
C            2.51408114753050        4.66889732433932       -0.44043319754446
C            1.70297962451244        4.19504701531248       -1.45913584619826
C            1.12641107451331        2.94202067652098       -1.36337709167695
C           -5.43210239366807       -5.03776955686041       -0.80529525511981
C           -6.60498513117863       -5.76184308906015       -0.83315742075682
H           -8.44745924021845       -3.86769366541325        1.29362278165161
H           -6.34449549454298       -2.58861288370691        1.34066442432831
H           -2.81177509775919       -4.85954216149008        0.07942311087616
H           -0.70655257769135       -3.54379833881041        0.08089482742018
H           -5.06068193647680       -1.25256500111991       -0.09596852402708
H           -5.07704302065681        0.68257644352877        0.05648296413485
H           -6.41135447784394        2.03577679769158       -1.32104780579313
H           -8.56898069000451        3.21843825126129       -1.23968732290067
H           -6.96607606736219        5.93474338901620        1.65366280191540
H           -4.81736960184582        4.73539669640585        1.58610131457236
H           -2.98291580325625        4.38157817137683        0.15101335022705
H           -0.85812834616808        3.19768026375075        0.07749653388130
H            3.32750020731891        1.23592123773223       -1.50423353110265
H            5.75710063224815        1.08399910813748       -1.41279832778703
H            9.50581291543390       -0.33818698530179       -1.18162714032139
H           10.85553572630246        1.71225174555649       -1.31197071855363
H           10.05944080986238        3.79428702320317       -0.24882237426860
H            7.90378952850004        3.80341418364198        0.95579649687146
H            6.56024944854578        1.75013061929977        1.10411993828283
H            9.32102880828234       -1.08086650090052        1.53092061093386
H           10.46100499542720       -3.24541708469668        1.78092381408944
H            9.60736511871331       -5.24204617818191        0.60505460315092
H            7.60692577979000       -5.05284906573253       -0.83057595074736
H            6.47501722499500       -2.88614243068346       -1.09615666030322
H            5.46868736686646       -2.17851309536557        1.33563990987576
H            3.00975559143069       -2.02215289226101        1.23960920581351
H            2.34405133825753        2.02011876429128        1.65845822603431
H            3.37597412223158        4.25826150752038        1.47577758590902
H            2.96617621658408        5.64555180502518       -0.52216626827144
H            1.52265291711386        4.80013522989079       -2.33486615748953
H            0.49710489978163        2.55976793251209       -2.15410771680735
H           -4.59316547446658       -5.35763642728481       -1.40537657314100
H           -6.68722883903802       -6.65300158992101       -1.43812732351073
