  91
       -144.91808320
 N         -9.9009965534       -6.6587835973       -0.1023386842
 C         -8.9217069485       -6.0626182032       -0.0884974748
 C         -7.7149378146       -5.3289673685       -0.0701062606
 C         -7.6075324432       -4.1785117929        0.7128441596
 C         -6.4273020271       -3.4657700075        0.7251345240
 C         -5.3314780384       -3.8801679877       -0.0334621324
 C         -4.0761741420       -3.1180703441       -0.0165578602
 C         -2.8437352885       -3.7863203057        0.0225602609
 C         -1.6773644113       -3.0685038787        0.0324128045
 C         -1.7022578358       -1.6696417183       -0.0011867020
 C         -2.9290645211       -0.9676419343       -0.0290153606
 C         -4.1004424062       -1.7345566345       -0.0400747855
 C         -2.9391233849        0.4857943877       -0.0288908858
 C         -4.1358036016        1.2078341743        0.0220153318
 C         -4.1745610373        2.5901938039        0.0681268503
 C         -5.4574748482        3.3007353677        0.1237171196
 C         -6.5457934666        2.8672989062       -0.6353979282
 C         -7.7521891335        3.5330203100       -0.5886000810
 C         -7.8942534781        4.6551006513        0.2292341857
 C         -9.1267045691        5.3430592605        0.2828545225
 N        -10.1263173975        5.9036029466        0.3233220113
 C         -6.8139365756        5.0973126049        0.9944935224
 C         -5.6119235845        4.4248935935        0.9365797858
 C         -2.9664941235        3.2979823588        0.0775305909
 C         -1.7732425250        2.6274470770        0.0173714731
 C         -1.7245535266        1.2268846534       -0.0522051080
 C         -0.5148622028        0.4833262796       -0.1071705327
 C         -0.5020000035       -0.9101145370       -0.0300856018
 N          0.7753789459       -1.3699612117       -0.0139725685
 C          1.5421492936       -0.3110973243       -0.0934949919
 C          2.9921540361       -0.3698901533       -0.1047666994
 C          3.7816973736        0.4950668114       -0.8624822787
 C          5.1556106402        0.4086112790       -0.8192772880
 C          5.7872218925       -0.5424910579       -0.0146585217
 N          7.1770132997       -0.6001191412        0.0521357605
 C          7.9339386645        0.5757769957       -0.0339203185
 C          9.1500696227        0.5839048216       -0.7158886981
 C          9.8969352458        1.7434541570       -0.7925248801
 C          9.4436298076        2.9109906617       -0.2007895684
 C          8.2349406611        2.9086800146        0.4760395663
 C          7.4850039987        1.7522991092        0.5656779823
 C          7.8281243949       -1.8321268256        0.2087411240
 C          8.9565032557       -1.9340665388        1.0209272859
 C          9.6003422459       -3.1475820829        1.1666321154
 C          9.1280831335       -4.2749409464        0.5148778780
 C          8.0055367089       -4.1787203923       -0.2911049052
 C          7.3595133946       -2.9680418017       -0.4498051096
 C          4.9957826489       -1.4339429196        0.7150773819
 C          3.6229915027       -1.3513340483        0.6623761130
 N          0.8092954070        0.8556188456       -0.1571890854
 C          1.3640366847        2.1483578125       -0.2353330275
 C          2.1645200354        2.6137260104        0.8010957764
 C          2.7474587858        3.8643726705        0.7071446904
 C          2.5333152077        4.6511704193       -0.4121722072
 C          1.7329246251        4.1868638965       -1.4436162549
 C          1.1497184991        2.9358696145       -1.3625495927
 C         -5.4499720005       -5.0342333153       -0.8091957854
 C         -6.6263611823       -5.7529115688       -0.8339901974
 H         -8.4508163140       -3.8569882757        1.3066424527
 H         -6.3418525996       -2.5872137218        1.3477227331
 H         -2.8225316359       -4.8651423326        0.0664115707
 H         -0.7144140301       -3.5539092244        0.0605628904
 H         -5.0640070411       -1.2532945377       -0.0965030885
 H         -5.0751690955        0.6804055780        0.0622953805
 H         -6.4349050790        2.0117315576       -1.2852234517
 H         -8.5892939228        3.1967490919       -1.1827260636
 H         -6.9293963170        5.9637875126        1.6291380781
 H         -4.7845708433        4.7603589910        1.5442244216
 H         -2.9750495403        4.3772189414        0.1113483169
 H         -0.8535984689        3.1897516625        0.0382967295
 H          3.3248512557        1.2217440953       -1.5166396440
 H          5.7544015986        1.0776082475       -1.4194409079
 H          9.5011436338       -0.3230303247       -1.1859124848
 H         10.8360264669        1.7368503979       -1.3258683781
 H         10.0280825863        3.8159856730       -0.2662766268
 H          7.8768347899        3.8127957488        0.9462691166
 H          6.5477739581        1.7505285677        1.1030413112
 H          9.3210557777       -1.0574769647        1.5363107587
 H         10.4725709090       -3.2143330768        1.8000314541
 H          9.6322770013       -5.2218827046        0.6332752360
 H          7.6337088752       -5.0514289082       -0.8072750523
 H          6.4904971582       -2.8924373361       -1.0868647698
 H          5.4697933231       -2.1830044099        1.3317494270
 H          3.0106742293       -2.0348607292        1.2293020242
 H          2.3267383013        1.9903943203        1.6677999123
 H          3.3698846761        4.2252023196        1.5118247765
 H          2.9903282215        5.6264014994       -0.4823531236
 H          1.5659276711        4.7980463483       -2.3176836674
 H          0.5295850422        2.5606445800       -2.1639049110
 H         -4.6154055454       -5.3556536763       -1.4143445741
 H         -6.7154466077       -6.6417952538       -1.4413037828
