  145
       -197.12651332
 C          0.0115732210        8.4054922822       -0.0134660495
 C         -0.0000451118        6.9072163653        0.0048943824
 C         -0.9801322437        6.1973638267        0.6855701077
 C         -0.9856959757        4.8162759592        0.6991160413
 C         -0.0065407323        4.0986339366        0.0135029142
 N         -0.0089556078        2.7061172399        0.0187704485
 C          1.1778760566        1.9739345750       -0.0945736669
 C          1.2043848110        0.8282724903       -0.8909124604
 C          2.3421948145        0.0553507955       -0.9647993944
 C          3.4845740822        0.3974192026       -0.2476399175
 C          4.6611470325       -0.5518981149       -0.2320001499
 C          4.9629328676       -1.1058299478       -1.6032297960
 C          4.8945545565       -0.2972761424       -2.7333870689
 C          5.2384732222       -0.8260888125       -3.9653894518
 C          5.6409410173       -2.1519424723       -4.0235484923
 N          5.7120797772       -2.9303108724       -2.9574330667
 C          5.3871762889       -2.4184591045       -1.7836958405
 C          4.3648378976       -1.6260915470        0.7981462563
 C          3.2916050737       -2.4821824203        0.8490065090
 C          3.1670784251       -3.3841801246        1.9071597261
 C          1.9552329507       -4.3011296311        1.9377527423
 C          0.6835680061       -3.4411535635        1.9654171130
 C          1.9351778671       -5.2243678126        3.1578021198
 C          1.9580583599       -5.1738801312        0.6756632091
 C          4.1535048962       -3.3965257433        2.8878340432
 C          5.2392256965       -2.5343915176        2.8454192800
 C          5.3447244959       -1.6364222430        1.7990191926
 C          6.3265695322       -0.6106888148        1.4942247893
 C          7.4827945717       -0.2164522971        2.1456945033
 C          8.2270220689        0.8218623311        1.6149513899
 C          7.8540125670        1.4830348519        0.4446239536
 C          8.7184549966        2.6214535575       -0.0745677847
 C          8.1730084043        3.2310755115       -1.3691486638
 C          8.7773157853        3.7289639405        0.9875486885
 C         10.1324569774        2.0936825894       -0.3551120784
 C          6.6915831620        1.0740749959       -0.2049564555
 C          5.9403378009        0.0459563612        0.3203167020
 C          3.4659480234        1.5525448763        0.5223221215
 C          2.3315638070        2.3385051943        0.5951200707
 C         -1.1988230111        1.9777542924        0.1241103651
 C         -1.2315205114        0.8303538149        0.9178264216
 C         -2.3692637957        0.0563832543        0.9797598296
 C         -3.5050029506        0.3987307980        0.2520871983
 C         -4.6790010487       -0.5532922620        0.2215771612
 C         -5.0007005236       -1.1029024424        1.5901161485
 C         -4.9443705713       -0.2915759926        2.7188831369
 C         -5.3086239993       -0.8148148320        3.9473338695
 C         -5.7186523646       -2.1383759268        4.0034178476
 N         -5.7781580313       -2.9194895038        2.9386729144
 C         -5.4340304175       -2.4127925502        1.7682241113
 C         -4.3680017880       -1.6300983271       -0.8017452546
 C         -3.2901726118       -2.4811594966       -0.8392170214
 C         -3.1485197793       -3.3834958881       -1.8949101264
 C         -1.9289963618       -4.2904656003       -1.9128150196
 C         -1.8918069218       -5.2174162461       -3.1296144569
 C         -1.9337669199       -5.1588143764       -0.6478230243
 C         -0.6647960769       -3.4194394447       -1.9338570696
 C         -4.1242763702       -3.4034476951       -2.8860199362
 C         -5.2152858525       -2.5475008833       -2.8565784025
 C         -5.3367300067       -1.6476797020       -1.8134587480
 C         -6.3255411544       -0.6239260991       -1.5246268737
 C         -7.4743713140       -0.2359842927       -2.1888394523
 C         -8.2311841134        0.8066946369       -1.6757169174
 C         -7.8697643967        1.4742279784       -0.5100124951
 C         -8.6740378025        2.6298779412        0.0642650279
 C         -9.9321920261        2.9423934741       -0.7497754953
 C         -9.1065361754        2.2791533975        1.4950907156
 C         -7.7894305486        3.8851031838        0.0811222679
 C         -6.7105070072        1.0690948333        0.1554224166
 C         -5.9516968035        0.0405828735       -0.3488329368
 C         -3.4817250313        1.5576666534       -0.5119603262
 C         -2.3476609472        2.3452346781       -0.5719470926
 C          0.9768524421        4.8074488578       -0.6781547386
 C          0.9775788630        6.1866025490       -0.6732580701
 H         -0.7568147054        8.8082715829        0.6414424076
 H          0.9801916726        8.7841372093        0.3098265441
 H         -0.1680772468        8.7731595190       -1.0237148710
 H         -1.7495409578        6.7318536196        1.2244775411
 H         -1.7491310594        4.2837762826        1.2470248792
 H          0.3190552558        0.5465569928       -1.4412872444
 H          2.3455604810       -0.8219001334       -1.5941525924
 H          4.5643404022        0.7281432906       -2.6473895406
 H          5.1945730912       -0.2233799454       -4.8597421683
 H          5.9182879326       -2.6159401384       -4.9606622798
 H          5.4666388590       -3.0934614191       -0.9418806849
 H          2.5470667285       -2.4491186959        0.0707582288
 H         -0.1951408456       -4.0810884799        2.0010577843
 H          0.6819769385       -2.8015585108        2.8458745627
 H          0.6187849696       -2.8104283611        1.0848605020
 H          1.9086072604       -4.6508848987        4.0812391500
 H          1.0449773333       -5.8493981623        3.1241385288
 H          2.8041373923       -5.8777405371        3.1677365178
 H          2.8605512466       -5.7801547848        0.6391699893
 H          1.9200481335       -4.5644622429       -0.2212822370
 H          1.0959187328       -5.8366630355        0.6804273440
 H          4.0874338974       -4.0853197572        3.7138985353
 H          5.9857465226       -2.5656164671        3.6253046904
 H          7.8017583385       -0.7078559233        3.0529588194
 H          9.1253997373        1.1217757579        2.1328544306
 H          7.1811771969        3.6510681582       -1.2170369234
 H          8.1298887647        2.4885896504       -2.1629193591
 H          8.8303647737        4.0341122363       -1.6961249849
 H          9.2217554566        3.3688675636        1.9109823923
 H          9.3730746979        4.5642882708        0.6259206899
 H          7.7752240881        4.0904707462        1.2099676787
 H         10.5976022854        1.7057973114        0.5466180295
 H         10.7599628677        2.8923992039       -0.7449165482
 H         10.0953634579        1.2926972611       -1.0906699393
 H          6.3636964075        1.5518315896       -1.1121657747
 H          4.3424005008        1.8324136883        1.0865132649
 H          2.3264779373        3.2289592422        1.2062206863
 H         -0.3504669402        0.5477767645        1.4746512598
 H         -2.3781502823       -0.8219245157        1.6076158737
 H         -4.6077577384        0.7319827337        2.6344117673
 H         -5.2745794573       -0.2096979464        4.8404771119
 H         -6.0112203352       -2.5982020711        4.9379011069
 H         -5.5043565025       -3.0898972306        0.9272671795
 H         -2.5543295482       -2.4433806553       -0.0530501413
 H         -1.8625002606       -4.6470511248       -4.0548893674
 H         -2.7553517813       -5.8778306401       -3.1440334626
 H         -0.9968667337       -5.8350448294       -3.0868347489
 H         -1.8968918972       -4.5464167929        0.2471390379
 H         -1.0716020510       -5.8215273015       -0.6491699865
 H         -2.8362400020       -5.7649765722       -0.6106007387
 H         -0.6618248891       -2.7837016750       -2.8169810022
 H         -0.6127514174       -2.7841015941       -1.0556755458
 H          0.2198331392       -4.0515040962       -1.9596442131
 H         -4.0449277248       -4.0926744966       -3.7105742088
 H         -5.9530631788       -2.5839024397       -3.6445224733
 H         -7.7827948084       -0.7333388519       -3.0965856785
 H         -9.1216489788        1.0939047264       -2.2102157167
 H        -10.4668413380        3.7694784260       -0.2870349006
 H         -9.6793376005        3.2343912201       -1.7663824650
 H        -10.6005158578        2.0850343589       -0.7796366575
 H         -9.7044545266        1.3701543129        1.4945285630
 H         -9.7041974407        3.0858511119        1.9141371437
 H         -8.2489495706        2.1201655842        2.1428971185
 H         -7.4675527810        4.1315805462       -0.9287947117
 H         -8.3444566387        4.7304555349        0.4819887252
 H         -6.9038476142        3.7374060902        0.6933274390
 H         -6.3994499879        1.5624950430        1.0625177421
 H         -4.3536465774        1.8392958617       -1.0821420738
 H         -2.3385940091        3.2378258738       -1.1798039758
 H          1.7371408090        4.2669484046       -1.2226037975
 H          1.7475577688        6.7173177600       -1.2151319521
