95
 energy: -158.562139200565 gnorm: 0.000083131643 xtb: 6.7.1 (edcfbbe)
C           -1.01628414673629        0.17849786796226        2.77944787385773
C           -1.72590587484203        0.80641564203008        1.56100188366645
C           -2.82195562285438        1.73956847341775        2.07587397039592
C           -0.70076381371675        1.52909708757106        0.71059921104601
C           -0.54339520817623        2.89395390697352        0.67506117029251
C            0.45635442123204        3.49028904484698       -0.10857517039305
N            0.62932748570751        4.86688329540451       -0.09623050768186
C            1.84764366841994        5.52143713669181       -0.01112692107089
C            3.12410530481262        4.99832935727507        0.14252040458453
C            4.17819658554146        5.88946101658342        0.23632746771147
C            3.97279919645026        7.26610069711743        0.19224521486201
C            2.69954543544674        7.79313985008210        0.07393782051885
C            1.62684341535566        6.91901383108534       -0.02218755162935
C            0.20550440968702        7.10970298504728       -0.12308666626530
C           -0.60103698005968        8.23561763029405       -0.19604116006368
C           -1.96721995649003        8.06447028993679       -0.32435963057241
C           -2.52551167764549        6.79120577117357       -0.40303424103302
C           -1.74073832147832        5.65415323961217       -0.33250869072801
C           -0.37287031827386        5.81830523314647       -0.16611711168873
C            1.27571098326153        2.68035202724593       -0.91094414004784
C            1.13715917032116        1.31895154016597       -0.87935355243375
C            0.17995767422936        0.72058980883502       -0.04374948860792
N            0.00923585092789       -0.65993710343251       -0.00711658836881
C            1.06297432983028       -1.53959477907724        0.11643260704956
C            0.85611217643676       -2.96139040682049        0.15980593922726
C            1.92312478924051       -3.81174821845548        0.27458491853939
C            3.22383122681057       -3.32647867932360        0.41076010384079
C            3.42372786360690       -1.93013372073615        0.45673911077644
C            2.37144404920999       -1.06594513923742        0.31267605956721
S            5.06164314121391       -1.26722256464403        0.63233328581160
O            5.02531572742730        0.09046340065239        0.13046548528718
O            5.56512508210952       -1.43860504092286        1.96309317594763
C            5.97886885332633       -2.25982937798107       -0.53417163885904
C            6.83865693297552       -1.65304434406758       -1.43437102899067
C            7.51374241141006       -2.42164586874172       -2.36571694550242
C            7.30830127925165       -3.79910306981030       -2.41348297923439
C            6.43047418567982       -4.39978066045217       -1.52945150093675
C            5.77413126904452       -3.63233380558526       -0.58090201664633
S            4.61728756627529       -4.40151857602363        0.54376820725692
O            5.15134860299524       -4.39376839158884        1.87530405019792
O            4.24640968528685       -5.68580353965367       -0.00249979289635
C           -1.33498778714767       -1.03820853039316       -0.07656085039089
C           -1.77759257344857       -2.01825833056261       -0.97404454870547
C           -3.11188832749197       -2.33622115573270       -1.05466555345143
C           -4.03748757861602       -1.67325952225361       -0.24217950691241
N           -5.38885085405420       -2.00889400813980       -0.27531504343551
C           -6.18676756871566       -2.22718654606375        0.83359452436016
C           -5.84726851815608       -2.23271571896217        2.17907169396965
C           -6.84225894812937       -2.51873799923381        3.09539192500671
C           -8.14393457102480       -2.80290979834256        2.68891432370956
C           -8.48128684063685       -2.82842233712873        1.34896788094312
C           -7.49869936403305       -2.54518412021403        0.41094846823987
C           -7.48489089640731       -2.51002250278738       -1.02553346009168
C           -8.45939057708816       -2.71073325069991       -1.99265015702342
C           -8.11134445514360       -2.56694048959408       -3.32230790579812
C           -6.81610564554447       -2.20949210461026       -3.68949000523289
C           -5.82831264841800       -2.00577359176690       -2.74372329822525
C           -6.16364771871326       -2.17830774574104       -1.40838052044023
C           -3.60101294677829       -0.64324969241695        0.60239447467422
C           -2.27037941679761       -0.30511078627055        0.68490630781147
H           -0.58385101143036        0.96228525134464        3.39693271595767
H           -0.22056282174549       -0.49779217671734        2.47971160998540
H           -1.73416551873740       -0.37975788290813        3.37623899954496
H           -3.35409020620714        2.21026860678405        1.25220217489903
H           -2.39114439202778        2.51160030121348        2.70764808037821
H           -3.53142244661891        1.18625956116858        2.68549715797325
H           -1.15059305213735        3.53344935093470        1.29353511175924
H            3.29874848894707        3.93559521371197        0.20517211710115
H            5.17993580224112        5.50563564931911        0.35267230768911
H            4.82130305170642        7.92939666074293        0.26557224876677
H            2.53893193197999        8.86031289822106        0.06275205739754
H           -0.16692620052970        9.22291779838191       -0.15970043306981
H           -2.61250770398532        8.92810271318055       -0.37954689431832
H           -3.59287586339676        6.68823621584886       -0.52840015464633
H           -2.18294101770938        4.67426682448978       -0.42612845994331
H            1.98672070085402        3.13905070132265       -1.57914900995265
H            1.73106207728614        0.69848377905765       -1.53161612452727
H           -0.14367834038503       -3.35943894330815        0.15036146849162
H            1.78461081972405       -4.88146787413269        0.28747847865873
H            2.59202799259112       -0.01443941951002        0.39502423774569
H            6.95819940257824       -0.58212504843801       -1.38172730144834
H            8.19760402123038       -1.95418918970220       -3.05762884722366
H            7.83369391041263       -4.39713466132414       -3.14234616851034
H            6.23431598247137       -5.46044705666934       -1.54872408642091
H           -1.06773401810067       -2.50139114337548       -1.62655249454115
H           -3.44538419018164       -3.11128120537578       -1.72646037909318
H           -4.83618288469432       -2.03892687395030        2.50338447651659
H           -6.60331271002702       -2.52790027594739        4.14823631502095
H           -8.89404646234404       -3.01852926041341        3.43467192520818
H           -9.48488046466564       -3.06992654397990        1.03399380019156
H           -9.46803609266897       -2.96790823303017       -1.70755988468791
H           -8.85387256962618       -2.72161077236105       -4.09047971963805
H           -6.57863960561606       -2.08439466491730       -4.73525568741636
H           -4.83416770778669       -1.70731450140683       -3.03925774575825
H           -4.34356306474940       -0.10544219758036        1.16818310249923
