95
 energy: -158.571191682654 gnorm: 0.000090187099 xtb: 6.7.1 (edcfbbe)
C           -0.50100118259045       -3.19417160039426        1.72640964125676
C           -0.44157677095800       -2.76663432462496        0.24741032027652
C           -0.64015630463343       -3.99044208032657       -0.66711419067451
C           -1.55705455406776       -1.77963100028388       -0.02039233090434
C           -2.86694453918364       -2.16877627901339        0.14668587813043
C           -3.93988739111392       -1.29959200347560       -0.08663585344932
N           -5.24352610042519       -1.72892066027543        0.09870709822800
C           -6.24888788985099       -1.01715501471333        0.73520248311190
C           -6.19386021816703        0.21399507347799        1.37206833916938
C           -7.35010905666955        0.68451248172404        1.96888799163828
C           -8.53078812803788       -0.05369419216185        1.94748370391050
C           -8.58239735937430       -1.29702645733762        1.34499248109635
C           -7.43499878061399       -1.78865084883382        0.73922272169462
C           -7.12769514049115       -3.01963108438184        0.06439353803128
C           -7.87840315854558       -4.14045512829904       -0.25991280891394
C           -7.27275566074631       -5.16056103390908       -0.96956002981422
C           -5.94454963528008       -5.06009568833747       -1.37599260885241
C           -5.17688311623861       -3.95238562099226       -1.06279728293370
C           -5.76646630285859       -2.94310534102676       -0.31576276099797
C           -3.66731773286457        0.00819405677185       -0.52760544270370
C           -2.37517167274739        0.41435781690901       -0.70085328616305
C           -1.29166054492899       -0.45023095127235       -0.42988085029866
N           -0.00699445575417        0.00275681355148       -0.57048027744847
C            0.19577767707276        1.38142895033281       -0.85953864204351
C            0.59554313220494        1.78420291827159       -2.15899223320439
C            0.74496351608241        3.12518716874687       -2.43080851190812
C            0.47913835968523        4.07880094539057       -1.45731141621040
C            0.09994476683228        3.67055386070171       -0.16452122924207
C           -0.02466566670814        2.32791793374507        0.12799871877513
S           -0.12640181968358        4.87614809206405        1.11899284230757
O           -1.34288550238561        5.60977487364115        0.92491047753814
O            0.01377584281708        4.18856679311811        2.38347134697495
C            1.30217959518787        5.91885143569676        0.89441525800021
C            2.09298285812694        6.25373665086854        1.98148370792498
C            3.23195325085990        7.01515904532747        1.79388744541783
C            3.59781373926521        7.41986098668946        0.51040172349375
C            2.82209433374974        7.06080227905496       -0.57648261427640
C            1.66629543393680        6.32118447577301       -0.38459560962694
S            0.69112828109566        5.80521112775494       -1.78766782498779
O            1.50745642695039        5.93422492209605       -2.97227493463605
O           -0.57226143738984        6.48397452369844       -1.79629815996887
C            1.08089199540929       -0.80997562182204       -0.38617779348408
C            2.38214732680295       -0.28681392521638       -0.53701661085882
C            3.48817601520036       -1.07390733480073       -0.37345341658825
C            3.33951515026637       -2.43256136814667       -0.04739122698842
N            4.44373086032923       -3.25779809704791        0.09954705925596
C            5.60559024082833       -2.95315580912729        0.79088094003221
C            5.92237981413688       -1.82733676207486        1.53622671457664
C            7.15375660323090       -1.79444961229457        2.16645929157177
C            8.04717251530631       -2.85863391327517        2.07114664977223
C            7.72309186481150       -3.99787472569187        1.35916990021354
C            6.49281631125197       -4.05341784645895        0.71892767914688
C            5.83231464560090       -5.06453199654627       -0.05837888137487
C            6.20258746042357       -6.33296631691695       -0.48345256461919
C            5.32288426462662       -7.04987612749610       -1.27203405653821
C            4.09874217406609       -6.50746046461353       -1.65569561848874
C            3.70838681759125       -5.24582701999165       -1.24292472259072
C            4.57051545175249       -4.53588083129905       -0.42051632528251
C            2.04927467366808       -2.94412809557986        0.13298491588100
C            0.92206820696937       -2.16817252080952       -0.02253504698277
H           -1.46054719932277       -3.64660279144306        1.95938056785446
H           -0.36422292768905       -2.32695620320764        2.36887607510048
H            0.27956311743053       -3.91523167133827        1.95147301657735
H            0.13309669650681       -4.73315898545502       -0.49410455760670
H           -0.60049427316934       -3.68524283932725       -1.71108906240329
H           -1.60149875438161       -4.45997758418088       -0.48055424902687
H           -3.09258039951183       -3.15988516391021        0.50730748740200
H           -5.28051939731203        0.78604366082403        1.41907060902122
H           -7.33287457316413        1.64256847400002        2.46520894780061
H           -9.41359403564283        0.34876590220298        2.42063267060570
H           -9.49141676156021       -1.87869655787938        1.34841336194703
H           -8.91559927785087       -4.20657604685911        0.03045176574090
H           -7.83877489617020       -6.04232029943206       -1.22920663970543
H           -5.50583894051206       -5.85935735466009       -1.95416084681238
H           -4.15966677798753       -3.87228651245466       -1.41420344143981
H           -4.48198247936324        0.67114832148845       -0.77054637318196
H           -2.17477257393955        1.40865158242576       -1.06527631687586
H            0.76677346847544        1.03495432380575       -2.91549951586615
H            1.05777990883269        3.47287407765535       -3.40284679770339
H           -0.29950478384981        2.04033961108238        1.13136177032920
H            1.79155661518236        5.90515871690799        2.95695268222720
H            3.84056201658741        7.29363968874009        2.64060581157578
H            4.48910978610141        8.01108770832566        0.36582063394801
H            3.08509292469254        7.33916604497554       -1.58506225071585
H            2.50137072024524        0.75251673028540       -0.79593199050915
H            4.47350023524904       -0.66596551215246       -0.53200382976331
H            5.22960890091836       -1.00681733918192        1.64097231126159
H            7.42402298396735       -0.92676848886093        2.74887781691742
H            9.00039248598425       -2.79399450707832        2.57366045126037
H            8.40584489867098       -4.83185663725619        1.30475110113173
H            7.16176855425460       -6.74344378470673       -0.20773529529982
H            5.59078569720038       -8.03924482145241       -1.61076399214179
H            3.44280519896510       -7.07990384292905       -2.29414484342246
H            2.77108950843309       -4.82490638722911       -1.57327252404639
H            1.95756861849524       -3.97251070882541        0.44517460794846
