  95
       -158.56946389
 C         -0.5087082375       -3.2276608270        1.6662959659
 C         -0.4452880541       -2.7730026666        0.1957436769
 C         -0.6353695280       -3.9807929496       -0.7417936357
 C         -1.5640847689       -1.7864526147       -0.0610965636
 C         -2.8726987484       -2.1780362335        0.1127871463
 C         -3.9477144348       -1.3086797227       -0.1093177144
 N         -5.2494979019       -1.7345850347        0.0938201329
 C         -6.2432631419       -1.0174605602        0.7426417448
 C         -6.1757939003        0.2164233811        1.3727807374
 C         -7.3217925055        0.6927440739        1.9850249339
 C         -8.5042358107       -0.0428785046        1.9849475475
 C         -8.5677989749       -1.2891988482        1.3896340034
 C         -7.4308495182       -1.7867240186        0.7688444942
 C         -7.1365099528       -3.0215605552        0.0960590381
 C         -7.8940448647       -4.1430228727       -0.2103797203
 C         -7.3014772403       -5.1676115038       -0.9246154167
 C         -5.9798478250       -5.0716887484       -1.3530548311
 C         -5.2053518539       -3.9635398852       -1.0576087375
 C         -5.7810479537       -2.9497910662       -0.3061108691
 C         -3.6795874703       -0.0016056426       -0.5534631790
 C         -2.3888545923        0.4061793715       -0.7350552264
 C         -1.3033204730       -0.4564553170       -0.4688270585
 N         -0.0202020980        0.0009267690       -0.6100387502
 C          0.1761527467        1.3829113614       -0.8890656334
 C          0.5571494882        1.7998446973       -2.1878446170
 C          0.7015125662        3.1442406425       -2.4474441517
 C          0.4463265381        4.0863946285       -1.4602369542
 C          0.0846459507        3.6638646039       -0.1683148394
 C         -0.0327695727        2.3179925406        0.1119394823
 S         -0.1179578069        4.8559528562        1.1328944275
 O         -1.3272883997        5.6055591575        0.9580038907
 O          0.0250169889        4.1501780068        2.3869129557
 C          1.3237133787        5.8773400555        0.9036934340
 C          2.1430621443        6.1726907491        1.9811477413
 C          3.2966846587        6.9092273460        1.7855659332
 C          3.6485913477        7.3285318094        0.5022377734
 C          2.8443150256        7.0084824339       -0.5757487972
 C          1.6740116266        6.2941630712       -0.3754671943
 S          0.6679983149        5.8166240279       -1.7690070509
 O          1.4650453687        5.9542508598       -2.9657350443
 O         -0.5885019749        6.5071715724       -1.7468588243
 C          1.0708421806       -0.8061872203       -0.4209890899
 C          2.3695161795       -0.2757012606       -0.5647361284
 C          3.4792217248       -1.0554091956       -0.3893727202
 C          3.3364303969       -2.4140052890       -0.0619140458
 N          4.4449565003       -3.2295762345        0.1025830461
 C          5.5927989390       -2.9133907327        0.8121719957
 C          5.8888897654       -1.7820396810        1.5572544313
 C          7.1088726699       -1.7377444385        2.2092708348
 C          8.0107064534       -2.7963916196        2.1347434411
 C          7.7070237727       -3.9411701272        1.4225667290
 C          6.4884767654       -4.0083144049        0.7609423136
 C          5.8484321857       -5.0274096237       -0.0222566318
 C          6.2342694841       -6.2954807295       -0.4349552746
 C          5.3730584235       -7.0217059969       -1.2354226220
 C          4.1520918323       -6.4895937592       -1.6429103459
 C          3.7462111674       -5.2285495585       -1.2425502304
 C          4.5890998534       -4.5093046465       -0.4086995822
 C          2.0478651898       -2.9346251966        0.1036377766
 C          0.9172019884       -2.1650369854       -0.0598241925
 H         -1.4667151959       -3.6889049172        1.8876469386
 H         -0.3784223813       -2.3716167907        2.3248252804
 H          0.2737493267       -3.9494390173        1.8819737080
 H          0.1405457546       -4.7231027170       -0.5789374683
 H         -0.5927074965       -3.6566754347       -1.7799300912
 H         -1.5959633288       -4.4567086333       -0.5675782632
 H         -3.0945462233       -3.1705229777        0.4718795948
 H         -5.2606374660        0.7866033485        1.4038117642
 H         -7.2947724156        1.6533115493        2.4760785828
 H         -9.3790849614        0.3641830082        2.4690750918
 H         -9.4779711766       -1.8686927858        1.4099079861
 H         -8.9265069180       -4.2059924633        0.0969752933
 H         -7.8731257754       -6.0496621474       -1.1706516951
 H         -5.5520176088       -5.8743984607       -1.9344553768
 H         -4.1939532401       -3.8868004521       -1.4260039969
 H         -4.4964931239        0.6604327864       -0.7913204102
 H         -2.1920427170        1.4007825835       -1.1005218694
 H          0.7203812934        1.0592299650       -2.9545584097
 H          1.0020869470        3.5029493088       -3.4192931491
 H         -0.2933104318        2.0190538100        1.1157267190
 H          1.8517848876        5.8127746148        2.9554626469
 H          3.9282200654        7.1562053027        2.6249809422
 H          4.5518618206        7.8995632405        0.3512841778
 H          3.0958493842        7.2979660545       -1.5840656002
 H          2.4841190819        0.7635565233       -0.8262646158
 H          4.4633145565       -0.6416571125       -0.5405051759
 H          5.1889857352       -0.9657101675        1.6460015379
 H          7.3629342862       -0.8655808943        2.7921234176
 H          8.9545194783       -2.7230240128        2.6536245895
 H          8.3963719274       -4.7706110024        1.3840832988
 H          7.1910678851       -6.6984118786       -0.1406141058
 H          5.6536470460       -8.0106915336       -1.5651466810
 H          3.5114558381       -7.0691594682       -2.2903710495
 H          2.8120194109       -4.8154226467       -1.5909778220
 H          1.9595485591       -3.9644587902        0.4120902371
