  70
       -127.96767684
 O         -3.5591199137       -5.1742023322       -1.6361232293
 C         -3.7453925900       -4.2111760452       -0.9130396375
 C         -5.0643136376       -3.9297501617       -0.3045592788
 C         -6.1290307232       -4.7778668367       -0.5981560939
 C         -7.3809534458       -4.5559254285       -0.0531371884
 C         -7.5846387873       -3.4799432439        0.7983981701
 C         -6.5352573666       -2.6313897865        1.1007540688
 C         -5.2702192505       -2.8420117454        0.5562095402
 C         -4.1820535324       -1.9090142429        0.9080254580
 O         -4.3411423897       -0.9787724947        1.6772035337
 C         -2.8725539612       -2.1671416352        0.2638147822
 C         -1.8299295815       -1.2946918811        0.5326903110
 C         -0.5750580093       -1.4757546976       -0.0452365286
 N          0.4548295999       -0.5741375246        0.2224920935
 C          0.1533775096        0.7775804090        0.4013033217
 C          0.8681743038        1.5564627482        1.3161329681
 C          0.5507367337        2.8856481385        1.4882449470
 C         -0.4833517414        3.4807399667        0.7658163174
 C         -1.1994734379        2.7036397629       -0.1534535248
 C         -0.8746445102        1.3677914867       -0.3297317634
 C         -2.3076053790        3.2643609715       -0.9616409463
 O         -2.9150554172        2.5843304236       -1.7686792494
 C         -2.6260182252        4.6858235084       -0.7240889369
 C         -3.6672369350        5.2680830056       -1.4438312479
 C         -4.0016032634        6.5962938734       -1.2530931809
 C         -3.2951411417        7.3627365219       -0.3378318362
 C         -2.2578939416        6.7971878407        0.3817654689
 C         -1.9115335792        5.4607213935        0.2007067931
 C         -0.7937607433        4.9041763662        0.9945283076
 O         -0.1673492812        5.5804623464        1.7912126806
 C          1.7761968803       -1.0089619879        0.2960037212
 C          2.0908632069       -2.2685771836        0.8171534576
 C          3.4029313396       -2.6822008275        0.8825947433
 C          4.4422924212       -1.8633988107        0.4400559805
 C          4.1314197418       -0.5992392519       -0.0776229902
 C          2.8101136702       -0.1867487934       -0.1479985724
 C          5.1787366325        0.3295143690       -0.5648253222
 O          4.8979485300        1.4257691479       -1.0137297960
 C          6.5692177734       -0.1539082610       -0.4646901703
 C          7.5996541395        0.6770765295       -0.8996168068
 C          8.9179471877        0.2661254479       -0.8236517863
 C          9.2235466134       -0.9863050993       -0.3113747108
 C          8.2096430116       -1.8213458800        0.1228433144
 C          6.8780353611       -1.4199011919        0.0535692911
 C          5.8310627891       -2.3505449640        0.5299756213
 O          6.0991731808       -3.4552567383        0.9687065298
 C         -0.3744918792       -2.5641686080       -0.9000970093
 C         -1.4075926979       -3.4366424436       -1.1623462035
 C         -2.6683208763       -3.2561915368       -0.5932816844
 H         -5.9476712595       -5.6103439575       -1.2622663115
 H         -8.1973157702       -5.2209639218       -0.2916579592
 H         -8.5602834708       -3.3031949158        1.2255201159
 H         -6.6704502793       -1.7876073297        1.7616535071
 H         -2.0153190321       -0.4718898247        1.2052970583
 H          1.6619836146        1.1085006257        1.8937309762
 H          1.0912358788        3.4935985374        2.1977421874
 H         -1.4369799833        0.7984476388       -1.0531264666
 H         -4.2030766470        4.6522070549       -2.1512629710
 H         -4.8119385405        7.0338043147       -1.8165536165
 H         -3.5529907184        8.3999683531       -0.1855107591
 H         -1.6939056875        7.3755327571        1.0988891892
 H          1.3004404964       -2.9096261751        1.1769622943
 H          3.6554759980       -3.6499712716        1.2892999973
 H          2.6012782796        0.7863446858       -0.5646580495
 H          7.3377956788        1.6476493702       -1.2951395873
 H          9.7064355978        0.9207234120       -1.1632892589
 H         10.2513066653       -1.3113233657       -0.2508712699
 H          8.4250342373       -2.8007481263        0.5245748555
 H          0.5894253494       -2.7084284382       -1.3637864123
 H         -1.2648604405       -4.2748452282       -1.8276882878
  70
       -127.96749037
 O         -4.5654664892       -2.9263818775       -2.2465923001
 C         -3.7211478490       -3.1691862718       -1.4020727650
 C         -3.6519021632       -4.4783260135       -0.7155149059
 C         -4.5619518906       -5.4691605954       -1.0746713881
 C         -4.5348419839       -6.7097680925       -0.4632942892
 C         -3.5950957315       -6.9760609399        0.5217155878
 C         -2.6875557646       -6.0000081905        0.8905994876
 C         -2.7022987499       -4.7475140438        0.2804960470
 C         -1.7120454508       -3.7393586522        0.7060390288
 O         -0.9021923658       -3.9509127421        1.5903365340
 C         -1.7519370525       -2.4461136748       -0.0158113468
 C         -0.8087158203       -1.4860694204        0.3138678113
 C         -0.7771203768       -0.2553196102       -0.3386082103
 N          0.2091420303        0.6763498955       -0.0129769322
 C         -0.0482435031        2.0425325940       -0.0814217270
 C          0.9591707855        2.9407526943       -0.4515306478
 C          0.6916535505        4.2890640986       -0.5282638344
 C         -0.5806576494        4.7902630544       -0.2523494326
 C         -1.5919376333        3.8951715651        0.1201607203
 C         -1.3176525428        2.5391785142        0.2099759073
 C         -2.9691199493        4.3514761409        0.4241371159
 O         -3.8350921016        3.5714475728        0.7754959909
 C         -3.2228830767        5.7961839563        0.2604580595
 C         -4.5101618393        6.2799534356        0.4850797088
 C         -4.7951560277        7.6251131827        0.3361776030
 C         -3.7920609044        8.5078942813       -0.0365229746
 C         -2.5088316760        8.0411099156       -0.2582871461
 C         -2.2088903439        6.6888083525       -0.1156371566
 C         -0.8218038268        6.2399422133       -0.3664533705
 O          0.0684300827        7.0205997212       -0.6541823352
 C          1.4791551977        0.2180407407        0.3467194189
 C          2.2199425445        0.8617505595        1.3420797188
 C          3.4696817465        0.3932621591        1.6843575141
 C          4.0216756298       -0.7207780698        1.0518342219
 C          3.2803926953       -1.3687919382        0.0554688368
 C          2.0230405857       -0.8969161107       -0.2862891599
 C          3.7997019241       -2.5541388597       -0.6666830007
 O          3.1433499480       -3.1138401082       -1.5259974562
 C          5.1519012959       -3.0031650947       -0.2829369511
 C          5.7047692391       -4.0998438265       -0.9408130492
 C          6.9705818838       -4.5530401139       -0.6171992834
 C          7.7017397155       -3.9138654808        0.3733879122
 C          7.1639715775       -2.8242610888        1.0346700966
 C          5.8913660218       -2.3560161645        0.7175957836
 C          5.3659073320       -1.1815247776        1.4479996078
 O          6.0070998202       -0.6224112438        2.3201125333
 C         -1.7300212147        0.0104868783       -1.3265364600
 C         -2.6767233169       -0.9378002413       -1.6461953927
 C         -2.7031556981       -2.1778816975       -1.0083958593
 H         -5.2856529872       -5.2400621518       -1.8431817422
 H         -5.2454939858       -7.4687275430       -0.7540708595
 H         -3.5705137257       -7.9431023302        1.0010709030
 H         -1.9474590854       -6.1842747596        1.6555480202
 H         -0.0975806929       -1.7188517216        1.0908931707
 H          1.9441021613        2.5691310706       -0.6895379532
 H          1.4616776802        4.9874561934       -0.8198171263
 H         -2.1131174827        1.8773874908        0.5154766121
 H         -5.2754297266        5.5747128590        0.7748531581
 H         -5.7978941685        7.9855062884        0.5100112356
 H         -4.0102884400        9.5587547597       -0.1538384500
 H         -1.7119129202        8.7107259501       -0.5473221808
 H          1.8028692714        1.7201864867        1.8464872900
 H          4.0464484665        0.8770012743        2.4582836161
 H          1.4789980202       -1.4116564196       -1.0627882928
 H          5.1165490534       -4.5821503047       -1.7077826826
 H          7.3869076975       -5.4035116369       -1.1357845356
 H          8.6902558783       -4.2644331875        0.6291758159
 H          7.7161237992       -2.3114082381        1.8086332369
 H         -1.7120313013        0.9547926952       -1.8481022276
 H         -3.4117497081       -0.7443907711       -2.4126757158
  70
       -127.96746948
 O         -2.4327437268       -5.9400176668        1.0793075364
 C         -2.8849996886       -4.9256666840        0.5779918394
 C         -4.2150530266       -4.8962320023       -0.0697211595
 C         -4.9675616542       -6.0674334863       -0.1022420797
 C         -6.2150918355       -6.0901355435       -0.6995408291
 C         -6.7283724112       -4.9372022261       -1.2754265880
 C         -5.9920100984       -3.7668799481       -1.2497382477
 C         -4.7348552827       -3.7302824141       -0.6500652493
 C         -3.9890481334       -2.4568146499       -0.6435196130
 O         -4.4323441734       -1.4368837584       -1.1391905875
 C         -2.6605904344       -2.4852499511        0.0126779810
 C         -1.9259056148       -1.3103207464        0.0500820671
 C         -0.6713347540       -1.2673463319        0.6543789131
 N          0.0456416728       -0.0722437731        0.6986977561
 C         -0.6294481715        1.1418877340        0.8261995748
 C         -1.7892659635        1.2395574557        1.6016451647
 C         -2.4390584486        2.4474726479        1.7249428168
 C         -1.9602834736        3.5936489190        1.0902578422
 C         -0.8007824972        3.4989260894        0.3101044704
 C         -0.1508209897        2.2810584238        0.1829552525
 C         -0.2347307173        4.6697692716       -0.4005356851
 O          0.7668638925        4.5749440405       -1.0861669627
 C         -0.9510123937        5.9468451854       -0.2162236782
 C         -0.4585128660        7.0879062947       -0.8463467309
 C         -1.0930537054        8.3074722171       -0.6955879969
 C         -2.2328011397        8.4018206337        0.0895277474
 C         -2.7339815743        7.2756938365        0.7176195837
 C         -2.1052900060        6.0414843728        0.5743515623
 C         -2.6840580705        4.8667614255        1.2629781023
 O         -3.6974706124        4.9459739681        1.9349483117
 C          1.4370282018       -0.0854690852        0.6008071781
 C          2.2114545731        0.8397813954        1.3084630763
 C          3.5840796201        0.8188260553        1.2013948499
 C          4.2311938923       -0.1177668921        0.3952306519
 C          3.4593251893       -1.0492946935       -0.3109088000
 C          2.0770913078       -1.0245532129       -0.2046325725
 C          4.0744071200       -2.0762050600       -1.1848929274
 O          3.3971651780       -2.8978890285       -1.7750557748
 C          5.5462802397       -2.0415773132       -1.2873968718
 C          6.1822434930       -2.9672350189       -2.1121297230
 C          7.5594418586       -2.9716118903       -2.2383923954
 C          8.3213385827       -2.0475043404       -1.5384515202
 C          7.7023174727       -1.1239083958       -0.7154199301
 C          6.3165624431       -1.1076683029       -0.5795821981
 C          5.7033582332       -0.0981287857        0.3112836163
 O          6.3736571651        0.7042550743        0.9368148496
 C         -0.1516576394       -2.4370988857        1.2182450409
 C         -0.8783557924       -3.6062314945        1.1780736136
 C         -2.1392757875       -3.6535635792        0.5832899669
 H         -4.5481654542       -6.9537699314        0.3509119048
 H         -6.7867675316       -7.0058719091       -0.7171740478
 H         -7.7011719576       -4.9511298399       -1.7435558846
 H         -6.3718093987       -2.8568768883       -1.6908671924
 H         -2.3486815909       -0.4300814074       -0.4087282326
 H         -2.1663116774        0.3658699985        2.1105811442
 H         -3.3304010373        2.5343406780        2.3277148235
 H          0.7319790239        2.2363733020       -0.4359230962
 H          0.4305557546        6.9908069320       -1.4522840523
 H         -0.6996602011        9.1837143368       -1.1884784850
 H         -2.7303663620        9.3522382509        0.2111511353
 H         -3.6211424083        7.3258028512        1.3319657286
 H          1.7274225013        1.5648745758        1.9444802709
 H          4.1903200101        1.5247535590        1.7484742699
 H          1.5087392285       -1.7464562150       -0.7705424255
 H          5.5690993486       -3.6778882424       -2.6470022139
 H          8.0388623895       -3.6947375189       -2.8809273381
 H          9.3966842048       -2.0475234405       -1.6341126377
 H          8.2758665561       -0.3955729928       -0.1608291446
 H          0.8166749443       -2.4160287528        1.6940442218
 H         -0.4890236773       -4.5118308263        1.6180371617
