  118
       -187.45239071
 C          6.5207449539       -4.0503194308        2.1888287040
 C          6.2059712994       -3.8039276876        0.8628686002
 C          6.6976822174       -2.6776536825        0.2284088761
 C          7.5075517868       -1.7910207646        0.9285032878
 N          7.9631177144       -0.6197044655        0.2940822305
 C          7.1411254287        0.3602052889       -0.2181296648
 C          5.6889868438        0.3217424420       -0.1528248089
 C          5.0037216362       -0.1464715929        0.9668705906
 C          3.6242752886       -0.1866283155        0.9710615084
 C          2.8942679784        0.2450841757       -0.1329632224
 C          1.4206588692        0.1639336669       -0.1300017862
 C          0.6522599901        1.3369210736       -0.1489916630
 C          1.2527737905        2.6235081548       -0.1360865578
 C          0.4981320030        3.7550338338       -0.1786151661
 C         -0.9069900885        3.6701602955       -0.2406709804
 C         -1.5227506903        2.4567418666       -0.2290221247
 C         -0.7747042771        1.2517425781       -0.1600678649
 C         -1.3987811275       -0.0037705610       -0.1212410386
 C         -2.8723833141       -0.0896509223       -0.1220752730
 C         -3.6098652300        0.3759669585        0.9627704897
 C         -4.9890416445        0.3130831249        0.9611944587
 C         -5.6660996864       -0.2128704295       -0.1375651095
 C         -7.1152696749       -0.3044248139       -0.2033271901
 N         -7.7450395521       -1.3109051618       -0.7563260700
 C         -9.0697574321       -1.0481330776       -0.6155609876
 C        -10.1675241084       -1.8573895097       -1.0266621569
 C        -10.0050998433       -3.0890194244       -1.6502964156
 C        -11.1123326655       -3.8385539741       -2.0091577318
 C        -12.3849629040       -3.3682465714       -1.7533741308
 C        -12.5844809561       -2.1310988278       -1.1339636849
 C        -13.8928287647       -1.6284363507       -0.8769944488
 C        -14.0732389963       -0.4170570386       -0.3054028172
 C        -12.9653869275        0.3997795587        0.0675087766
 C        -13.1604547202        1.6653518422        0.6270458596
 C        -12.0830813199        2.4597345047        0.9564004814
 C        -10.7888440915        2.0045787071        0.7691780892
 C        -10.5464114761        0.7354006309        0.2469234358
 C        -11.6490585458       -0.0795817447       -0.1441539748
 C        -11.4631506316       -1.3510050220       -0.7577318364
 C         -9.2538720828        0.1738042115        0.0339683592
 N         -7.9855539553        0.6358461628        0.3029318145
 C         -7.5984633539        1.8256943130        0.9485527345
 C         -7.9363644131        2.0404292727        2.2813917313
 C         -7.5211613173        3.1972916074        2.9147467910
 C         -6.7646778193        4.1345503892        2.2294048125
 C         -6.4240876437        3.9158262735        0.9049439892
 C         -6.8392394396        2.7647089730        0.2602049307
 C         -4.9273417615       -0.7064855272       -1.2133712063
 C         -3.5500624217       -0.6429045790       -1.2062238775
 C         -0.6303999582       -1.1764300837       -0.0843193994
 C         -1.2314812179       -2.4604955082       -0.0055753502
 C         -0.4776954616       -3.5932584464        0.0058797411
 C          0.9270781877       -3.5120730314       -0.0664354830
 C          1.5434612626       -2.2999667620       -0.1178457049
 C          0.7964848747       -1.0922518039       -0.1046054835
 C          3.5803829660        0.7491275208       -1.2354998293
 C          4.9591011989        0.7900894016       -1.2450453786
 N          7.8195925929        1.3364168402       -0.7662622235
 C          9.1303442466        1.0124654210       -0.6153047909
 C         10.2683067247        1.7700931232       -1.0157120884
 C         10.1691236701        3.0080000634       -1.6402347034
 C         11.3131303777        3.7062895901       -1.9870442166
 C         12.5602314496        3.1783730017       -1.7183255909
 C         12.6965041893        1.9332473465       -1.0977744510
 C         13.9778492130        1.3716988227       -0.8270677509
 C         14.0972253698        0.1539756342       -0.2528333071
 C         12.9496475863       -0.6111941078        0.1090178695
 C         13.0806553326       -1.8829677118        0.6730345097
 C         11.9646395483       -2.6267542532        0.9922276403
 C         10.6946170629       -2.1139064085        0.7895279197
 C         10.5162653030       -0.8362647183        0.2620658366
 C         11.6587509366       -0.0729209811       -0.1178777392
 C         11.5368507416        1.2050542166       -0.7337444711
 C          9.2530939603       -0.2165460439        0.0354826688
 C          7.8214260053       -2.0344247681        2.2622331660
 C          7.3299038573       -3.1667361953        2.8851868801
 H          6.1351003269       -4.9301150780        2.6809472091
 H          5.5755290567       -4.4910204284        0.3188339905
 H          6.4570603658       -2.4747582531       -0.8046651045
 H          5.5448151235       -0.4643067823        1.8449864502
 H          3.0991904707       -0.5500280441        1.8427304530
 H          2.3291066956        2.6900134720       -0.0885064750
 H          0.9702224729        4.7263683249       -0.1692011351
 H         -1.4900762465        4.5779465220       -0.2928478363
 H         -2.5996837344        2.3933640931       -0.2742616871
 H         -3.0909452009        0.7820498285        1.8191815511
 H         -5.5345684962        0.6559427890        1.8270327571
 H         -9.0031317842       -3.4407796484       -1.8398689052
 H        -10.9795333249       -4.7961095449       -2.4914925039
 H        -13.2476143662       -3.9551591785       -2.0355184596
 H        -14.7384750419       -2.2395820136       -1.1593326492
 H        -15.0671075985       -0.0343268091       -0.1206080600
 H        -14.1686064968        2.0201788834        0.7856562275
 H        -12.2434997159        3.4468218956        1.3652902555
 H         -9.9640957383        2.6512837082        1.0222875603
 H         -8.5224046737        1.3005871892        2.8072187637
 H         -7.7863833106        3.3649308826        3.9478286884
 H         -6.4397275677        5.0342019439        2.7293753804
 H         -5.8353464275        4.6450642490        0.3692422721
 H         -6.5805900026        2.5844325028       -0.7726221755
 H         -5.4575378113       -1.1326584666       -2.0506665653
 H         -2.9849515292       -1.0134684517       -2.0492402918
 H         -2.3076633735       -2.5236152956        0.0493034115
 H         -0.9500632554       -4.5626063555        0.0662244777
 H          1.5098966621       -4.4215046104       -0.0762170836
 H          2.6202536996       -2.2408797740       -0.1710899594
 H          3.0214901576        1.0953577771       -2.0929214431
 H          5.4951894708        1.1769322776       -2.0976169216
 H          9.1863232039        3.4053375708       -1.8398528046
 H         11.2292392106        4.6691807920       -2.4696777034
 H         13.4518917719        3.7251423997       -1.9908198602
 H         14.8534939784        1.9434541170       -1.1003436825
 H         15.0708533068       -0.2730166225       -0.0574287424
 H         14.0696871843       -2.2830896004        0.8438930585
 H         12.0760550450       -3.6187494820        1.4055572027
 H          9.8383540574       -2.7218204613        1.0341230930
 H          8.4466869337       -1.3344064577        2.7973676260
 H          7.5747478433       -3.3558775977        3.9195214969
