  82
       -133.81598229
 N          2.3414839249        2.5635080434       -1.7033783578
 C          1.6669580647        1.8127110190       -1.1581698250
 C          0.7809561682        0.8860537636       -0.5689777833
 C          1.0461345802       -0.4940435910       -0.6375018659
 N          2.2418202988       -0.9458540975       -1.1932315066
 C          3.5311598726       -0.5440846827       -0.8825294876
 C          3.8458844691        0.3056918726        0.2554891657
 C          3.1355915979        0.2084437455        1.4505344169
 C          3.4748313161        1.0117614274        2.5241865140
 C          4.5186260870        1.9166626185        2.4172059534
 C          5.2363754668        2.0054618276        1.2350037973
 C          4.9086912445        1.2013493649        0.1607582041
 N          4.4235995640       -1.0752201213       -1.6656285112
 C          3.7403169896       -1.8634800614       -2.5519066756
 C          4.2006766198       -2.6438581350       -3.6063802268
 C          3.2650088360       -3.3349247656       -4.3476851718
 C          1.9004974845       -3.2564034338       -4.0646062966
 C          1.4204476416       -2.4877245897       -3.0220103725
 C          2.3566281879       -1.8046459807       -2.2648679941
 C          0.1044847146       -1.4072602302       -0.1939285692
 C         -1.0933445783       -0.9627482889        0.3643840282
 N         -2.0203450693       -1.8852810351        0.8393987084
 C         -1.7610493477       -3.0473324379        1.5523491843
 C         -0.4492841155       -3.3924573648        2.0850038511
 C         -0.0440559447       -4.7251502473        2.0690347793
 C          1.1901258810       -5.0827012156        2.5779026684
 C          2.0257727234       -4.1186927336        3.1179830988
 C          1.6158879573       -2.7959510182        3.1633236928
 C          0.3855672812       -2.4294823192        2.6501988888
 N         -2.8278190023       -3.7622377963        1.7545158578
 C         -3.8644799383       -3.0842886727        1.1697622518
 C         -5.2131108973       -3.4093838082        1.0850323164
 C         -6.0407464599       -2.5339685845        0.4131322126
 C         -5.5481263125       -1.3677220188       -0.1737380068
 C         -4.2117696982       -1.0250235024       -0.1012096267
 C         -3.3794400120       -1.8885409259        0.5906460583
 C         -1.3540916783        0.4001477902        0.4594706000
 C         -0.4311994050        1.3233434343       -0.0126323365
 N         -0.7200574774        2.6839535280        0.0743625108
 C         -1.8888169036        3.3107402223       -0.3268415228
 C         -2.9037417461        2.6567884544       -1.1402258490
 C         -2.5563953063        1.7552374241       -2.1458415867
 C         -3.5396042481        1.1756394416       -2.9267110337
 C         -4.8735753068        1.4861671453       -2.7158133257
 C         -5.2226999929        2.3929973910       -1.7275832309
 C         -4.2454636090        2.9800458761       -0.9463381777
 N         -1.9385043181        4.5599129070        0.0330858805
 C         -0.7710825841        4.8141553683        0.7023361415
 C         -0.3149288779        5.9810346998        1.3050567332
 C          0.9137553549        5.9392208777        1.9298838469
 C          1.6770797720        4.7710990774        1.9688258132
 C          1.2444052731        3.6003147650        1.3784432685
 C          0.0203535096        3.6423945863        0.7343241749
 H          2.3379059289       -0.5125898766        1.5510957028
 H          2.9217746159        0.9323657702        3.4496137421
 H          4.7740615256        2.5456980902        3.2566830415
 H          6.0546887634        2.7043068740        1.1521399669
 H          5.4564244261        1.2562684511       -0.7655931596
 H          5.2537408121       -2.6928856025       -3.8298338686
 H          3.5899409150       -3.9489803537       -5.1738245454
 H          1.2030607142       -3.8083131231       -4.6764844863
 H          0.3627310824       -2.4215165224       -2.8130240739
 H          0.3132724177       -2.4627964297       -0.2661766602
 H         -0.7103276044       -5.4641852711        1.6525845855
 H          1.5009962221       -6.1161629864        2.5552930715
 H          2.9904356074       -4.3968126492        3.5143724147
 H          2.2575899603       -2.0494439013        3.6081780598
 H          0.0596395434       -1.4010127579        2.7119151997
 H         -5.5833179998       -4.3188499763        1.5290082869
 H         -7.0939868171       -2.7554477471        0.3305577232
 H         -6.2255484915       -0.7124474760       -0.7002088108
 H         -3.8441642603       -0.1295449567       -0.5738847784
 H         -2.2674028319        0.7486771338        0.9145155778
 H         -1.5182314982        1.5294392837       -2.3383420271
 H         -3.2624881345        0.4808976000       -3.7059806197
 H         -5.6359767918        1.0275441909       -3.3271097702
 H         -6.2600142500        2.6462039095       -1.5685791125
 H         -4.4998944611        3.6964806234       -0.1813921660
 H         -0.9117802708        6.8780482043        1.2797212693
 H          1.2976904183        6.8289249175        2.4056538722
 H          2.6323731146        4.7809362369        2.4713212447
 H          1.8433830159        2.7047655325        1.4146471380
