  82
  -133.815982290000       0.602874779536585      !
 N          2.3414839249        2.5635080434       -1.7033783578
 C          1.6669580647        1.8127110190       -1.1581698250
 C          0.7809561682        0.8860537636       -0.5689777833
 C          1.0461345802       -0.4940435910       -0.6375018659
 N          2.2418202988       -0.9458540975       -1.1932315066
 C          3.5311598726       -0.5440846827       -0.8825294876
 C          3.8458844691        0.3056918726        0.2554891657
 C          3.1355915979        0.2084437455        1.4505344169
 C          3.4748313161        1.0117614274        2.5241865140
 C          4.5186260870        1.9166626185        2.4172059534
 C          5.2363754668        2.0054618276        1.2350037973
 C          4.9086912445        1.2013493649        0.1607582041
 N          4.4235995640       -1.0752201213       -1.6656285112
 C          3.7403169896       -1.8634800614       -2.5519066756
 C          4.2006766198       -2.6438581350       -3.6063802268
 C          3.2650088360       -3.3349247656       -4.3476851718
 C          1.9004974845       -3.2564034338       -4.0646062966
 C          1.4204476416       -2.4877245897       -3.0220103725
 C          2.3566281879       -1.8046459807       -2.2648679941
 C          0.1044847146       -1.4072602302       -0.1939285692
 C         -1.0933445783       -0.9627482889        0.3643840282
 N         -2.0203450693       -1.8852810351        0.8393987084
 C         -1.7610493477       -3.0473324379        1.5523491843
 C         -0.4492841155       -3.3924573648        2.0850038511
 C         -0.0440559447       -4.7251502473        2.0690347793
 C          1.1901258810       -5.0827012156        2.5779026684
 C          2.0257727234       -4.1186927336        3.1179830988
 C          1.6158879573       -2.7959510182        3.1633236928
 C          0.3855672812       -2.4294823192        2.6501988888
 N         -2.8278190023       -3.7622377963        1.7545158578
 C         -3.8644799383       -3.0842886727        1.1697622518
 C         -5.2131108973       -3.4093838082        1.0850323164
 C         -6.0407464599       -2.5339685845        0.4131322126
 C         -5.5481263125       -1.3677220188       -0.1737380068
 C         -4.2117696982       -1.0250235024       -0.1012096267
 C         -3.3794400120       -1.8885409259        0.5906460583
 C         -1.3540916783        0.4001477902        0.4594706000
 C         -0.4311994050        1.3233434343       -0.0126323365
 N         -0.7200574774        2.6839535280        0.0743625108
 C         -1.8888169036        3.3107402223       -0.3268415228
 C         -2.9037417461        2.6567884544       -1.1402258490
 C         -2.5563953063        1.7552374241       -2.1458415867
 C         -3.5396042481        1.1756394416       -2.9267110337
 C         -4.8735753068        1.4861671453       -2.7158133257
 C         -5.2226999929        2.3929973910       -1.7275832309
 C         -4.2454636090        2.9800458761       -0.9463381777
 N         -1.9385043181        4.5599129070        0.0330858805
 C         -0.7710825841        4.8141553683        0.7023361415
 C         -0.3149288779        5.9810346998        1.3050567332
 C          0.9137553549        5.9392208777        1.9298838469
 C          1.6770797720        4.7710990774        1.9688258132
 C          1.2444052731        3.6003147650        1.3784432685
 C          0.0203535096        3.6423945863        0.7343241749
 H          2.3379059289       -0.5125898766        1.5510957028
 H          2.9217746159        0.9323657702        3.4496137421
 H          4.7740615256        2.5456980902        3.2566830415
 H          6.0546887634        2.7043068740        1.1521399669
 H          5.4564244261        1.2562684511       -0.7655931596
 H          5.2537408121       -2.6928856025       -3.8298338686
 H          3.5899409150       -3.9489803537       -5.1738245454
 H          1.2030607142       -3.8083131231       -4.6764844863
 H          0.3627310824       -2.4215165224       -2.8130240739
 H          0.3132724177       -2.4627964297       -0.2661766602
 H         -0.7103276044       -5.4641852711        1.6525845855
 H          1.5009962221       -6.1161629864        2.5552930715
 H          2.9904356074       -4.3968126492        3.5143724147
 H          2.2575899603       -2.0494439013        3.6081780598
 H          0.0596395434       -1.4010127579        2.7119151997
 H         -5.5833179998       -4.3188499763        1.5290082869
 H         -7.0939868171       -2.7554477471        0.3305577232
 H         -6.2255484915       -0.7124474760       -0.7002088108
 H         -3.8441642603       -0.1295449567       -0.5738847784
 H         -2.2674028319        0.7486771338        0.9145155778
 H         -1.5182314982        1.5294392837       -2.3383420271
 H         -3.2624881345        0.4808976000       -3.7059806197
 H         -5.6359767918        1.0275441909       -3.3271097702
 H         -6.2600142500        2.6462039095       -1.5685791125
 H         -4.4998944611        3.6964806234       -0.1813921660
 H         -0.9117802708        6.8780482043        1.2797212693
 H          1.2976904183        6.8289249175        2.4056538722
 H          2.6323731146        4.7809362369        2.4713212447
 H          1.8433830159        2.7047655325        1.4146471380
  82
  -133.815587790000       0.397125220463415      !
 N          2.5647547683        2.3762993876       -1.6259701555
 C          1.8589547266        1.7195975414       -1.0040473531
 C          0.9461331052        0.8728809097       -0.3396836374
 C          1.2830140637       -0.4752015145       -0.1114529199
 N          2.5782900323       -0.9158174558       -0.3725257083
 C          3.7654589290       -0.3348326595        0.0475485038
 C          3.8246216262        0.7361316332        1.0315589916
 C          2.9461551947        0.7770489607        2.1132403411
 C          3.0544677919        1.7831217403        3.0563087874
 C          4.0334386705        2.7555453482        2.9303099969
 C          4.9157062890        2.7120154140        1.8623170580
 C          4.8186941908        1.7057201281        0.9208376197
 N          4.8138965742       -0.9176700077       -0.4540462112
 C          4.3493331691       -1.9315999891       -1.2486469893
 C          5.0377522329       -2.8596371207       -2.0215631939
 C          4.2938551294       -3.7818214477       -2.7282853848
 C          2.8988935696       -3.7889584983       -2.6821375752
 C          2.1933583533       -2.8756562254       -1.9231064887
 C          2.9361314795       -1.9574353498       -1.2020575310
 C          0.3290735214       -1.3587178964        0.3653455485
 C         -0.9537355763       -0.9030455425        0.6628145181
 N         -1.8999435586       -1.7900234930        1.1742404200
 C         -2.2090360575       -3.0559149220        0.7044863213
 C         -1.7459863609       -3.5662297771       -0.5776106426
 C         -1.6361711349       -2.7301450841       -1.6876601255
 C         -1.2350278852       -3.2482883769       -2.9055945827
 C         -0.9393179947       -4.5966149712       -3.0292386392
 C         -1.0584464001       -5.4328259562       -1.9305997597
 C         -1.4655552774       -4.9245648869       -0.7116878700
 N         -3.0251934424       -3.6980239384        1.4886894052
 C         -3.2940721375       -2.8585282400        2.5359477251
 C         -4.0935884220       -3.0473020438        3.6575283000
 C         -4.1670559134       -2.0170250628        4.5712562142
 C         -3.4604997122       -0.8265573817        4.3921923843
 C         -2.6608483942       -0.6174233287        3.2854215247
 C         -2.5981626580       -1.6402693798        2.3541021970
 C         -1.2791373810        0.4377256959        0.4983512045
 C         -0.3426633999        1.3259071656       -0.0159095769
 N         -0.7039763150        2.6534086839       -0.2264833809
 C         -1.8751524201        3.1057344318       -0.8163667611
 C         -2.8234075494        2.2245433548       -1.4848409051
 C         -2.3954217689        1.1630064736       -2.2807176721
 C         -3.3229264118        0.3553247465       -2.9124223567
 C         -4.6789725528        0.5912250300       -2.7543083237
 C         -5.1085389752        1.6567491106       -1.9797167951
 C         -4.1875536910        2.4750114156       -1.3534990144
 N         -2.0032998521        4.3976065682       -0.7546812898
 C         -0.8919445970        4.8644375868       -0.1034377653
 C         -0.5322364014        6.1625086387        0.2395317495
 C          0.6517799066        6.3373395017        0.9249073078
 C          1.4602173713        5.2553545143        1.2762304560
 C          1.1225564116        3.9576297476        0.9460961968
 C         -0.0519637874        3.7788081211        0.2367026404
 H          2.1939151974        0.0108795497        2.2347062266
 H          2.3724649203        1.8067804974        3.8940466231
 H          4.1095906515        3.5405420772        3.6675314129
 H          5.6832770421        3.4645466869        1.7655668759
 H          5.4988727748        1.6540753260        0.0866995505
 H          6.1145879245       -2.8454938192       -2.0611684994
 H          4.7990259795       -4.5163249578       -3.3371031997
 H          2.3544328328       -4.5264693441       -3.2523704289
 H          1.1156487293       -2.8825632515       -1.8985275851
 H          0.5889402330       -2.3927323324        0.5291828215
 H         -1.8892481418       -1.6839614095       -1.6047769707
 H         -1.1515015741       -2.5971260836       -3.7640209087
 H         -0.6246694859       -4.9934904082       -3.9825726422
 H         -0.8368308454       -6.4849158451       -2.0264018049
 H         -1.5744318992       -5.5638720769        0.1501518346
 H         -4.6271130668       -3.9731059894        3.7972136699
 H         -4.7792341345       -2.1309447533        5.4530532938
 H         -3.5399121285       -0.0500490246        5.1379186796
 H         -2.1078360695        0.3016176444        3.1590887837
 H         -2.2709569708        0.7859820792        0.7393596314
 H         -1.3394617148        0.9899860019       -2.4303429334
 H         -2.9890518944       -0.4575951464       -3.5406158286
 H         -5.3973486390       -0.0484741281       -3.2442240461
 H         -6.1642157636        1.8522480077       -1.8674092703
 H         -4.5046230807        3.3150714328       -0.7557819031
 H         -1.1673332211        6.9923133733       -0.0240812444
 H          0.9618298985        7.3329933829        1.2041399219
 H          2.3757522003        5.4336197571        1.8195730470
 H          1.7549660378        3.1324550442        1.2286483804
