  95
       -149.84227497
 O         -6.9616775691        2.5542858642        0.7773661230
 C         -6.3620392953        1.5470454927        0.4566351905
 C         -4.8953009713        1.4432590590        0.4082580455
 C         -4.1510593035        2.5652191275        0.7214769425
 C         -2.7694917883        2.5448877066        0.5983942314
 C         -2.0924921092        1.3985766612        0.2200269097
 C         -0.6642042699        1.5329056266       -0.0867678726
 C         -0.1592084154        1.1142402744       -1.3173867665
 C          1.1621097786        1.3159510099       -1.6485821113
 C          2.0364981929        1.9327297621       -0.7493972643
 N          3.3806812164        2.1114457964       -1.0578763506
 C          4.0703856155        1.2085942370       -1.8773087287
 C          5.0727475667        1.6688342071       -2.7311798243
 C          5.7760842369        0.7811612276       -3.5219769874
 C          5.4906226369       -0.5738801503       -3.4817232240
 C          4.4901984353       -1.0346448861       -2.6421298361
 C          3.7859514611       -0.1554014401       -1.8429126632
 C          4.0901644406        3.1873221433       -0.4991074317
 C          3.5221204072        4.4589582383       -0.4477985969
 C          4.2251164714        5.5115235436        0.1064096667
 C          5.5010421890        5.3146090187        0.6090299258
 C          6.0712600277        4.0530790402        0.5549782441
 C          5.3738367978        2.9932424063        0.0080234452
 C          1.5267053701        2.3682121725        0.4777933889
 C          0.1989049343        2.1830600033        0.7924178779
 C         -2.8153898842        0.1854380314        0.0390319277
 C         -2.1943699392       -1.0807375728       -0.1596851685
 C         -0.7750646209       -1.3253823347        0.1231689899
 C         -0.2235091444       -0.9511968888        1.3480100060
 C          1.0830748947       -1.2531423912        1.6611237666
 C          1.8959024356       -1.9308442590        0.7486431785
 N          3.2274826629       -2.2122725587        1.0393340700
 C          3.9949533455       -1.3640787670        1.8470943202
 C          4.9756530513       -1.8971399104        2.6839498134
 C          5.7547478457       -1.0644100238        3.4633086468
 C          5.5673625426        0.3078552267        3.4297287675
 C          4.5884675084        0.8413756277        2.6079776850
 C          3.8094806843        0.0171706690        1.8195276319
 C          3.8415964115       -3.3429872655        0.4764428228
 C          3.1722480535       -4.5647575769        0.4353488753
 C          3.7819003860       -5.6720390256       -0.1227668191
 C          5.0640879016       -5.5801934759       -0.6394380791
 C          5.7346247207       -4.3685208074       -0.5962206177
 C          5.1309068179       -3.2544136021       -0.0458241870
 C          1.3387057060       -2.3220161258       -0.4725057589
 C          0.0244869280       -2.0354725708       -0.7691884090
 C         -2.9668321646       -2.1706017462       -0.5227167746
 C         -4.3491196613       -2.0898289121       -0.6143076280
 C         -4.9894040117       -0.9111231753       -0.2809708923
 C         -4.2366588370        0.2405375713        0.0557812450
 C         -6.4188145353       -0.8138935000       -0.2582792963
 N         -7.2731791356       -1.7541659659       -0.5436722333
 C         -8.5166762012       -1.1981511968       -0.3766483524
 C         -9.7746086841       -1.7627280805       -0.5466903827
 C        -10.8725452471       -0.9617341745       -0.3032080350
 C        -10.7356914082        0.3666077875        0.0984150271
 C         -9.4925785692        0.9481821732        0.2742273897
 C         -8.3911488920        0.1499065690        0.0326078407
 N         -7.0265618304        0.3850702128        0.1038249207
 H         -4.6701154150        3.4663665640        1.0106195745
 H         -2.2108391673        3.4563281197        0.7516629667
 H         -0.8229931621        0.6499441715       -2.0313276668
 H          1.5280125510        1.0039315409       -2.6150009145
 H          5.2946495727        2.7251628691       -2.7703373853
 H          6.5482464666        1.1521524879       -4.1795133464
 H          6.0418189770       -1.2648137400       -4.1009589553
 H          4.2648880305       -2.0903624437       -2.5985555761
 H          3.0119775612       -0.5212096129       -1.1880663641
 H          2.5300622490        4.6132050309       -0.8468059969
 H          3.7763708542        6.4932536394        0.1387201610
 H          6.0476175592        6.1396601252        1.0393932494
 H          7.0629591148        3.8895020554        0.9496959183
 H          5.8132515547        2.0073358555       -0.0248286239
 H          2.1823884080        2.8503156673        1.1870198348
 H         -0.1687391627        2.5132627242        1.7529278827
 H         -0.8406546292       -0.4403942928        2.0720965859
 H          1.4841201232       -0.9735515230        2.6235429766
 H          5.1212371784       -2.9667825396        2.7188740989
 H          6.5097181020       -1.4916506837        4.1065520558
 H          6.1775138728        0.9557060304        4.0402411787
 H          4.4379375887        1.9105828446        2.5708220675
 H          3.0513574435        0.4395714544        1.1805439759
 H          2.1755914085       -4.6376221954        0.8457127786
 H          3.2550363784       -6.6143728747       -0.1469404651
 H          5.5379418270       -6.4478620524       -1.0722100925
 H          6.7322964053       -4.2868880440       -1.0014417168
 H          5.6488978270       -2.3071474650       -0.0210303058
 H          1.9464289337       -2.8508172888       -1.1912680681
 H         -0.3801694507       -2.3347145762       -1.7249814808
 H         -2.4809003495       -3.1207500719       -0.6892920613
 H         -4.9448212388       -2.9452162169       -0.8896936856
 H         -9.8753749378       -2.7900266543       -0.8571862318
 H        -11.8645185735       -1.3706953935       -0.4258438483
 H        -11.6219956599        0.9566344198        0.2770591758
 H         -9.3779156887        1.9737230664        0.5846837100
