  95
  -149.842274970000       0.269528774598617      !
 O         -6.9616775691        2.5542858642        0.7773661230
 C         -6.3620392953        1.5470454927        0.4566351905
 C         -4.8953009713        1.4432590590        0.4082580455
 C         -4.1510593035        2.5652191275        0.7214769425
 C         -2.7694917883        2.5448877066        0.5983942314
 C         -2.0924921092        1.3985766612        0.2200269097
 C         -0.6642042699        1.5329056266       -0.0867678726
 C         -0.1592084154        1.1142402744       -1.3173867665
 C          1.1621097786        1.3159510099       -1.6485821113
 C          2.0364981929        1.9327297621       -0.7493972643
 N          3.3806812164        2.1114457964       -1.0578763506
 C          4.0703856155        1.2085942370       -1.8773087287
 C          5.0727475667        1.6688342071       -2.7311798243
 C          5.7760842369        0.7811612276       -3.5219769874
 C          5.4906226369       -0.5738801503       -3.4817232240
 C          4.4901984353       -1.0346448861       -2.6421298361
 C          3.7859514611       -0.1554014401       -1.8429126632
 C          4.0901644406        3.1873221433       -0.4991074317
 C          3.5221204072        4.4589582383       -0.4477985969
 C          4.2251164714        5.5115235436        0.1064096667
 C          5.5010421890        5.3146090187        0.6090299258
 C          6.0712600277        4.0530790402        0.5549782441
 C          5.3738367978        2.9932424063        0.0080234452
 C          1.5267053701        2.3682121725        0.4777933889
 C          0.1989049343        2.1830600033        0.7924178779
 C         -2.8153898842        0.1854380314        0.0390319277
 C         -2.1943699392       -1.0807375728       -0.1596851685
 C         -0.7750646209       -1.3253823347        0.1231689899
 C         -0.2235091444       -0.9511968888        1.3480100060
 C          1.0830748947       -1.2531423912        1.6611237666
 C          1.8959024356       -1.9308442590        0.7486431785
 N          3.2274826629       -2.2122725587        1.0393340700
 C          3.9949533455       -1.3640787670        1.8470943202
 C          4.9756530513       -1.8971399104        2.6839498134
 C          5.7547478457       -1.0644100238        3.4633086468
 C          5.5673625426        0.3078552267        3.4297287675
 C          4.5884675084        0.8413756277        2.6079776850
 C          3.8094806843        0.0171706690        1.8195276319
 C          3.8415964115       -3.3429872655        0.4764428228
 C          3.1722480535       -4.5647575769        0.4353488753
 C          3.7819003860       -5.6720390256       -0.1227668191
 C          5.0640879016       -5.5801934759       -0.6394380791
 C          5.7346247207       -4.3685208074       -0.5962206177
 C          5.1309068179       -3.2544136021       -0.0458241870
 C          1.3387057060       -2.3220161258       -0.4725057589
 C          0.0244869280       -2.0354725708       -0.7691884090
 C         -2.9668321646       -2.1706017462       -0.5227167746
 C         -4.3491196613       -2.0898289121       -0.6143076280
 C         -4.9894040117       -0.9111231753       -0.2809708923
 C         -4.2366588370        0.2405375713        0.0557812450
 C         -6.4188145353       -0.8138935000       -0.2582792963
 N         -7.2731791356       -1.7541659659       -0.5436722333
 C         -8.5166762012       -1.1981511968       -0.3766483524
 C         -9.7746086841       -1.7627280805       -0.5466903827
 C        -10.8725452471       -0.9617341745       -0.3032080350
 C        -10.7356914082        0.3666077875        0.0984150271
 C         -9.4925785692        0.9481821732        0.2742273897
 C         -8.3911488920        0.1499065690        0.0326078407
 N         -7.0265618304        0.3850702128        0.1038249207
 H         -4.6701154150        3.4663665640        1.0106195745
 H         -2.2108391673        3.4563281197        0.7516629667
 H         -0.8229931621        0.6499441715       -2.0313276668
 H          1.5280125510        1.0039315409       -2.6150009145
 H          5.2946495727        2.7251628691       -2.7703373853
 H          6.5482464666        1.1521524879       -4.1795133464
 H          6.0418189770       -1.2648137400       -4.1009589553
 H          4.2648880305       -2.0903624437       -2.5985555761
 H          3.0119775612       -0.5212096129       -1.1880663641
 H          2.5300622490        4.6132050309       -0.8468059969
 H          3.7763708542        6.4932536394        0.1387201610
 H          6.0476175592        6.1396601252        1.0393932494
 H          7.0629591148        3.8895020554        0.9496959183
 H          5.8132515547        2.0073358555       -0.0248286239
 H          2.1823884080        2.8503156673        1.1870198348
 H         -0.1687391627        2.5132627242        1.7529278827
 H         -0.8406546292       -0.4403942928        2.0720965859
 H          1.4841201232       -0.9735515230        2.6235429766
 H          5.1212371784       -2.9667825396        2.7188740989
 H          6.5097181020       -1.4916506837        4.1065520558
 H          6.1775138728        0.9557060304        4.0402411787
 H          4.4379375887        1.9105828446        2.5708220675
 H          3.0513574435        0.4395714544        1.1805439759
 H          2.1755914085       -4.6376221954        0.8457127786
 H          3.2550363784       -6.6143728747       -0.1469404651
 H          5.5379418270       -6.4478620524       -1.0722100925
 H          6.7322964053       -4.2868880440       -1.0014417168
 H          5.6488978270       -2.3071474650       -0.0210303058
 H          1.9464289337       -2.8508172888       -1.1912680681
 H         -0.3801694507       -2.3347145762       -1.7249814808
 H         -2.4809003495       -3.1207500719       -0.6892920613
 H         -4.9448212388       -2.9452162169       -0.8896936856
 H         -9.8753749378       -2.7900266543       -0.8571862318
 H        -11.8645185735       -1.3706953935       -0.4258438483
 H        -11.6219956599        0.9566344198        0.2770591758
 H         -9.3779156887        1.9737230664        0.5846837100
  95
  -149.842267030000       0.267273662826611      !
 O         -6.9416087603        2.6499606020        0.7336073484
 C         -6.3494984714        1.6345287350        0.4246341097
 C         -4.8832562322        1.5161937751        0.3881106394
 C         -4.1297664632        2.6327451724        0.6987851402
 C         -2.7474619277        2.5979993363        0.5849442915
 C         -2.0797455050        1.4426846643        0.2181154929
 C         -0.6490601762        1.5585621304       -0.0857004657
 C         -0.1500381334        1.1306253589       -1.3155305480
 C          1.1746530700        1.3099285609       -1.6456236937
 C          2.0591801874        1.9104584598       -0.7452508548
 N          3.4073681881        2.0603657018       -1.0523561045
 C          4.1420152026        3.1178232904       -0.4914258415
 C          3.6028795716        4.4016607947       -0.4327084431
 C          4.3309380575        5.4357184850        0.1240534157
 C          5.6036603697        5.2081885099        0.6217307519
 C          6.1454374034        3.9345554069        0.5599157153
 C          5.4228517889        2.8931266266        0.0104884694
 C          4.0772644793        1.1404584846       -1.8696054211
 C          3.7615449846       -0.2164964559       -1.8328638466
 C          4.4458831088       -1.1134835573       -2.6295885265
 C          5.4578760713       -0.6777705058       -3.4687488303
 C          5.7746643225        0.6702453954       -3.5112092853
 C          5.0908152984        1.5757327089       -2.7233623704
 C          1.5550694385        2.3570624058        0.4802903910
 C          0.2234418732        2.1963401656        0.7930215298
 C         -2.8134000518        0.2354240479        0.0413585846
 C         -2.2037289505       -1.0379171946       -0.1455735145
 C         -0.7880132031       -1.2968413662        0.1421004022
 C         -0.2318364638       -0.9236548641        1.3650224882
 C          1.0699247118       -1.2438445630        1.6811439464
 C          1.8722857538       -1.9406963648        0.7739677772
 N          3.1986894471       -2.2443653850        1.0664183153
 C          3.7879516028       -3.3909897766        0.5086222685
 C          5.0724306934       -3.3309384101       -0.0288449260
 C          5.6481671129       -4.4607949033       -0.5774302624
 C          4.9543682196       -5.6597626926       -0.6031029138
 C          3.6770647705       -5.7233335662       -0.0703316115
 C          3.0952937664       -4.6001671572        0.4857604998
 C          3.9859386731       -1.4028029482        1.8612322500
 C          4.9681456463       -1.9454044442        2.6903473703
 C          5.7679518751       -1.1199687962        3.4563567375
 C          5.5994427730        0.2546036090        3.4180593516
 C          4.6185408299        0.7976887514        2.6050376584
 C          3.8195480602       -0.0191501812        1.8290590511
 C          1.3102543179       -2.3299639068       -0.4456482356
 C          0.0015223066       -2.0237790216       -0.7457247182
 C         -2.9847891821       -2.1228962796       -0.5051314948
 C         -4.3653401305       -2.0290310330       -0.6071686930
 C         -4.9957049477       -0.8413077329       -0.2872427968
 C         -4.2340694288        0.3046614445        0.0482893460
 C         -6.4239742671       -0.7292858481       -0.2784794061
 N         -7.2846547630       -1.6621652443       -0.5686946731
 C         -8.5240755490       -1.0930854087       -0.4166127713
 C         -9.7854744330       -1.6459509676       -0.5983720367
 C        -10.8780222656       -0.8338110503       -0.3680666197
 C        -10.7322421020        0.4940343427        0.0318644043
 C         -9.4853925219        1.0643008402        0.2182109714
 C         -8.3892729935        0.2550631826       -0.0106606820
 N         -7.0230205542        0.4772043343        0.0731451056
 H         -4.6415931335        3.5413224580        0.9777977822
 H         -2.1807582007        3.5050730500        0.7352111968
 H         -0.8209404777        0.6767013160       -2.0295750798
 H          1.5358140686        0.9915663111       -2.6117068760
 H          2.6136450992        4.5802792530       -0.8285054332
 H          3.9044332648        6.4271119734        0.1620107850
 H          6.1699106678        6.0187754442        1.0540285775
 H          7.1346448627        3.7471175125        0.9504712980
 H          5.8401787057        1.8977975671       -0.0273699589
 H          2.9779297349       -0.5626159214       -1.1790570505
 H          4.1959806820       -2.1635318780       -2.5842845874
 H          5.9939139245       -1.3825300104       -4.0856872054
 H          6.5562374797        1.0217326738       -4.1682285245
 H          5.3372397565        2.6265340239       -2.7643802334
 H          2.2179352543        2.8281467782        1.1902600716
 H         -0.1400341409        2.5354290601        1.7520718310
 H         -0.8417221127       -0.3995470343        2.0857656376
 H          1.4746780389       -0.9643671448        2.6420766548
 H          5.6082275626       -2.3933121473       -0.0183574625
 H          6.6420536328       -4.4013894245       -0.9954587633
 H          5.4063082653       -6.5395548436       -1.0347981223
 H          3.1323127309       -6.6557278540       -0.0803983125
 H          2.1023542016       -4.6503125357        0.9084123901
 H          5.0986901983       -3.0168590079        2.7297098106
 H          6.5239229423       -1.5548043468        4.0934467701
 H          6.2257492547        0.8969088689        4.0179437116
 H          4.4830403151        1.8687450684        2.5640558677
 H          3.0617316809        0.4110736807        1.1950169931
 H          1.9099490062       -2.8734901533       -1.1600941218
 H         -0.4067459074       -2.3215775092       -1.7003987280
 H         -2.5072069733       -3.0789809798       -0.6616461207
 H         -4.9678381666       -2.8801825113       -0.8808965509
 H         -9.8928253231       -2.6729908671       -0.9077452288
 H        -11.8725644488       -1.2335967132       -0.4996819933
 H        -11.6146058823        1.0927928215        0.2006473167
 H         -9.3641147996        2.0894655425        0.5274459234
  95
  -149.842264600000       0.266587274604810      !
 O         -6.9817488580        0.3526772194       -2.5937174208
 C         -6.3734079954        0.2400907127       -1.5475755189
 C         -4.9057634978        0.2456749554       -1.4448784687
 C         -4.1706337416        0.4170182634       -2.6029651871
 C         -2.7883564788        0.5198752881       -2.5454541821
 C         -2.1015662791        0.3949799202       -1.3503247349
 C         -0.6717052159        0.7233923201       -1.3589027987
 C          0.1818333545        0.1806585674       -2.3167377223
 C          1.5115548358        0.5353659251       -2.3662808954
 C          2.0332344723        1.4746799617       -1.4712608914
 N          3.3798480359        1.8194768155       -1.5149535701
 C          4.0850452637        1.7378521009       -2.7269631431
 C          3.5171571087        2.2098910580       -3.9089078624
 C          4.2152961579        2.1220749440       -5.0981292644
 C          5.4864550722        1.5718404617       -5.1254724664
 C          6.0567226043        1.1066821165       -3.9515736792
 C          5.3639665674        1.1845309737       -2.7588315112
 C          4.0786163809        2.1889820051       -0.3583069244
 C          5.0905518108        3.1461669170       -0.4318908830
 C          5.8035362412        3.4944736608        0.6988545938
 C          5.5182588868        2.9034954125        1.9189127404
 C          4.5079903795        1.9594063299        1.9989004035
 C          3.7941245930        1.6000183700        0.8724494602
 C          1.1680705089        2.0503420211       -0.5365516482
 C         -0.1552779690        1.6737812850       -0.4787199329
 C         -2.8156374103        0.0684322355       -0.1628479186
 C         -2.1853030942       -0.2669738169        1.0694210416
 C         -0.7682873491       -0.6368847284        1.1635014051
 C          0.0462985758       -0.1195577828        2.1676911206
 C          1.3577382666       -0.5209380799        2.2957380293
 C          1.8967631318       -1.4817481995        1.4350549048
 N          3.2260220871       -1.8751698800        1.5592325304
 C          3.8531013716       -1.8282520343        2.8148638917
 C          3.1898051392       -2.2834713006        3.9530600793
 C          3.8099578301       -2.2294172245        5.1865370051
 C          5.0970392516       -1.7299646840        5.3023670319
 C          5.7617750199       -1.2815575010        4.1725073506
 C          5.1475086334       -1.3257243736        2.9357773647
 C          3.9788616667       -2.2662778540        0.4452599438
 C          4.9539700926       -3.2556004232        0.5747491934
 C          5.7175465704       -3.6282152857       -0.5142431608
 C          5.5199792730       -3.0307500320       -1.7485560329
 C          4.5467424609       -2.0549150743       -1.8845573146
 C          3.7833429632       -1.6704627074       -0.7995361082
 C          1.0687952440       -2.0305272454        0.4522526142
 C         -0.2349286759       -1.6083905622        0.3170722678
 C         -2.9476613042       -0.3708550586        2.2201102845
 C         -4.3296175033       -0.2473671327        2.1955557293
 C         -4.9798882458       -0.0753477304        0.9880725243
 C         -4.2371648057        0.0795664995       -0.2079401877
 C         -6.4099614558       -0.0551806467        0.9019707259
 N         -7.2560516761       -0.1696818898        1.8850541429
 C         -8.5043119320       -0.1033474202        1.3186720194
 C         -9.7570476933       -0.1747808908        1.9148405912
 C        -10.8621010392       -0.0836989779        1.0921428587
 C        -10.7369866258        0.0746932023       -0.2875165947
 C         -9.4991416889        0.1493249248       -0.9012311404
 C         -8.3905701229        0.0586922218       -0.0817039123
 N         -7.0280350593        0.0910455939       -0.3369067724
 H         -4.6970239623        0.5202266210       -3.5397818938
 H         -2.2367056730        0.7510195277       -3.4447670001
 H         -0.1950691927       -0.5585561104       -3.0081247051
 H          2.1594029088        0.0805749536       -3.1002671269
 H          2.5293109017        2.6464318969       -3.8854070133
 H          3.7668152070        2.4934826849       -6.0075182411
 H          6.0295181516        1.5069335137       -6.0558222884
 H          7.0449578050        0.6714641894       -3.9649027895
 H          5.8032615296        0.8118316581       -1.8454589945
 H          5.3131290823        3.6133495557       -1.3799075194
 H          6.5839054430        4.2374419561        0.6268471467
 H          6.0772327611        3.1775093849        2.8004735911
 H          4.2825323224        1.4882428537        2.9446102120
 H          3.0118925796        0.8618676901        0.9404965268
 H          1.5430371942        2.8032148714        0.1400127885
 H         -0.8116154207        2.1408528231        0.2402980479
 H         -0.3442760537        0.6348863070        2.8347477284
 H          1.9772379120       -0.0870441396        3.0661208968
 H          2.1893189072       -2.6802811815        3.8605389411
 H          3.2876034847       -2.5873368112        6.0613032102
 H          5.5790786524       -1.6913489765        6.2671630475
 H          6.7631684285       -0.8857937396        4.2547591915
 H          5.6611075016       -0.9663762303        2.0564183623
 H          5.1069385396       -3.7292200567        1.5333075263
 H          6.4679351122       -4.3963046581       -0.3992487081
 H          6.1179560538       -3.3246365568       -2.5975526677
 H          4.3891474653       -1.5786399967       -2.8414181938
 H          3.0299441303       -0.9081272917       -0.9120067022
 H          1.4561618323       -2.7990479566       -0.1993525596
 H         -0.8645383009       -2.0555696300       -0.4377371187
 H         -2.4544093080       -0.6045648456        3.1522245773
 H         -4.9178730790       -0.3371972479        3.0946164652
 H         -9.8481897172       -0.2973383937        2.9818542257
 H        -11.8503821826       -0.1363910741        1.5242596073
 H        -11.6285112896        0.1400274119       -0.8928920769
 H         -9.3938499634        0.2708002079       -1.9668344203
  95
  -149.841346430000       0.100896871085992      !
 O         -6.9939820822        2.6128051965       -0.5416418652
 C         -6.3933360588        1.5787327853       -0.3265270957
 C         -4.9249020047        1.4687746533       -0.3146219377
 C         -4.1891021377        2.6075357719       -0.5790153274
 C         -2.8052725028        2.5428435656       -0.6505424221
 C         -2.1191951439        1.3627182358       -0.4249050460
 C         -0.6723208738        1.3909479423       -0.6830685843
 C         -0.0832880532        0.5257539687       -1.6019707877
 C          1.2605275813        0.6131809754       -1.8949950726
 C          2.0634929105        1.5741328343       -1.2751781549
 N          3.4279846378        1.6591372249       -1.5483238142
 C          3.9181661015        1.3952878654       -2.8328324929
 C          3.1799403958        1.7444521733       -3.9633918284
 C          3.6745779864        1.4817478318       -5.2263344291
 C          4.9115270499        0.8786037169       -5.3850322230
 C          5.6525631732        0.5377873325       -4.2651431730
 C          5.1634017547        0.7889375587       -2.9979490093
 C          4.3140202959        2.0658177211       -0.5404446149
 C          5.3896843159        2.9024170247       -0.8348050193
 C          6.2557624105        3.2991651276        0.1659696668
 C          6.0576933033        2.8828513392        1.4722924238
 C          4.9860628413        2.0573140222        1.7708956142
 C          4.1249589138        1.6421331418        0.7740947445
 C          1.4684811295        2.4564708789       -0.3714469184
 C          0.1231405167        2.3694546097       -0.0909679650
 C         -2.8353029066        0.1947885102       -0.0367475524
 C         -2.2144097268       -1.0253109752        0.3562543533
 C         -0.7761721710       -1.1635520934        0.6298555672
 C         -0.1332218130       -0.3480150740        1.5578029018
 C          1.1957729986       -0.5402714950        1.8685629006
 C          1.9286081015       -1.5624006367        1.2601052751
 N          3.2776347415       -1.7578085353        1.5545290162
 C          3.7701549284       -1.5330776682        2.8452265766
 C          2.9877787401       -1.8078018164        3.9666097031
 C          3.4861402267       -1.5829107260        5.2353440887
 C          4.7700115430       -1.0927437639        5.4095072305
 C          5.5547250461       -0.8273747916        4.2990326218
 C          5.0627497063       -1.0407386893        3.0260856688
 C          4.1397389386       -2.2465292433        0.5622855693
 C          5.1256818170       -3.1811200601        0.8754016178
 C          5.9667964881       -3.6608779051       -0.1101129867
 C          5.8317298696       -3.2298116397       -1.4196828196
 C          4.8495737909       -2.3057090887       -1.7368011718
 C          4.0146995531       -1.8086242458       -0.7551967928
 C          1.2787575574       -2.3937364336        0.3460307613
 C         -0.0511703325       -2.1998755711        0.0459206064
 C         -2.9902100546       -2.1504794554        0.5749261845
 C         -4.3746416324       -2.1168097401        0.4909578233
 C         -5.0123500118       -0.9218475795        0.2195787920
 C         -4.2589906367        0.2486174449       -0.0439604663
 C         -6.4424969078       -0.8288043036        0.1989224772
 N         -7.2923832718       -1.7918637805        0.4107183399
 C         -8.5385850628       -1.2299422283        0.2887667738
 C         -9.7937156392       -1.8110712354        0.4182583952
 C        -10.8952266784       -0.9976160463        0.2417536933
 C        -10.7644644629        0.3582003127       -0.0561671861
 C         -9.5241153637        0.9570200662       -0.1888316569
 C         -8.4192387808        0.1467493542       -0.0122171834
 N         -7.0554051347        0.3918317031       -0.0677151189
 H         -4.7134484228        3.5322332442       -0.7668538982
 H         -2.2481520626        3.4244303216       -0.9317078438
 H         -0.6905854925       -0.2168555712       -2.0974225997
 H          1.6968416162       -0.0655416192       -2.6128778277
 H          2.2217046091        2.2286686668       -3.8448622531
 H          3.0932892854        1.7600577527       -6.0929413936
 H          5.2959758765        0.6787879521       -6.3734331515
 H          6.6173464648        0.0652479268       -4.3773762989
 H          5.7390750748        0.5133314915       -2.1271551185
 H          5.5385497811        3.2421217642       -1.8491818235
 H          7.0846177815        3.9480968705       -0.0751197623
 H          6.7318376063        3.2014752150        2.2525383984
 H          4.8238596812        1.7250946164        2.7856866159
 H          3.2965399612        0.9919411322        1.0059550390
 H          2.0696806909        3.2185242169        0.1010679061
 H         -0.3189767915        3.0601028296        0.6123438017
 H         -0.6869176316        0.4394903390        2.0469445431
 H          1.6737062416        0.1017663862        2.5937123760
 H          1.9917609492       -2.2049402436        3.8367323899
 H          2.8697260709       -1.8022105804        6.0945771213
 H          5.1567123605       -0.9221695775        6.4024381590
 H          6.5565646877       -0.4432281418        4.4231063836
 H          5.6732786931       -0.8230480619        2.1626402184
 H          5.2236101852       -3.5314775059        1.8923517202
 H          6.7250475064       -4.3862652143        0.1451516903
 H          6.4851603216       -3.6134148139       -2.1882377992
 H          4.7373431497       -1.9614635660       -2.7543750548
 H          3.2557359484       -1.0831660661       -1.0013841768
 H          1.8240679721       -3.2012896705       -0.1187480057
 H         -0.5363430971       -2.8530956981       -0.6647730110
 H         -2.5005937436       -3.0702917573        0.8597160114
 H         -4.9711299195       -2.9963566136        0.6722086347
 H         -9.8895439013       -2.8597086182        0.6484197205
 H        -11.8852684810       -1.4184871322        0.3358100044
 H        -11.6535978923        0.9566396306       -0.1864411390
 H         -9.4143025430        2.0041764156       -0.4185653170
  95
  -149.841296590000       9.571341688396992E-002 !
 O         -6.9695200486        2.6461290397       -0.3565557515
 C         -6.3715760699        1.5979048761       -0.2150142887
 C         -4.9038166522        1.4839804015       -0.2053508221
 C         -4.1634600425        2.6350050528       -0.3938998869
 C         -2.7804858065        2.5688560505       -0.4779103188
 C         -2.0991758619        1.3738164182       -0.3284055737
 C         -0.6586644785        1.3985248262       -0.6147330868
 C         -0.0990022122        0.5426360108       -1.5610468294
 C          1.2375673173        0.6233506151       -1.8849953538
 C          2.0624822319        1.5714958788       -1.2741236324
 N          3.4168818252        1.6562107403       -1.5930445085
 C          3.8538724759        1.4132307141       -2.9012170758
 C          3.0713011819        1.7857393544       -3.9939283159
 C          3.5092298637        1.5390640659       -5.2807545038
 C          4.7333316245        0.9292380488       -5.5013069712
 C          5.5197077169        0.5678069570       -4.4194234075
 C          5.0875325214        0.8035213789       -3.1285719407
 C          4.3409938167        2.0500977988       -0.6155228205
 C          5.4121098843        2.8795293411       -0.9455017857
 C          6.3182720824        3.2647780171        0.0235408555
 C          6.1645178956        2.8453181951        1.3347149429
 C          5.0968065814        2.0285344871        1.6694423856
 C          4.1963660488        1.6228249800        0.7038006443
 C          1.4984404123        2.4414169119       -0.3391993925
 C          0.1603533215        2.3584629422       -0.0243465603
 C         -2.8195038469        0.1896441457       -0.0010445121
 C         -2.2019043806       -1.0497438132        0.3336453085
 C         -0.7694252711       -1.1904197821        0.6304903236
 C         -0.1450567185       -0.3818327885        1.5778409589
 C          1.1820337838       -0.5646150882        1.9010538910
 C          1.9307448416       -1.5737328078        1.2903566047
 N          3.2770386676       -1.7602799159        1.6033903891
 C          3.7395890468       -1.5529400069        2.9085877135
 C          2.9378697407       -1.8626623458        4.0069604363
 C          3.4043272143       -1.6541906415        5.2905284194
 C          4.6750417923       -1.1450245062        5.5023453293
 C          5.4791014761       -0.8449472777        4.4147763239
 C          5.0194035782       -1.0430622967        3.1272820826
 C          4.1624359274       -2.2226970865        0.6200824000
 C          5.1680766838       -3.1333009464        0.9419783733
 C          6.0353256346       -3.5859104715       -0.0334912383
 C          5.9061745294       -3.1536275286       -1.3431629017
 C          4.9029349615       -2.2559090266       -1.6698932265
 C          4.0430489448       -1.7834030731       -0.6978158682
 C          1.2997481566       -2.3997905564        0.3585794073
 C         -0.0273611843       -2.2122009634        0.0420752946
 C         -2.9798643998       -2.1858137828        0.4751820051
 C         -4.3627989230       -2.1473715363        0.3700689527
 C         -4.9984466454       -0.9376666680        0.1675099983
 C         -4.2424270841        0.2468308881       -0.0122007430
 C         -6.4281080034       -0.8418465111        0.1350601071
 N         -7.2813206035       -1.8168047516        0.2630742897
 C         -8.5254651486       -1.2453506716        0.1670634670
 C         -9.7826262626       -1.8326449340        0.2348945170
 C        -10.8812297000       -1.0061652391        0.1066148772
 C        -10.7457252644        0.3684938022       -0.0843450490
 C         -9.5032805466        0.9734416618       -0.1554566099
 C         -8.4013757092        0.1499941017       -0.0275336124
 N         -7.0368757370        0.3963312377       -0.0479120633
 H         -4.6843509515        3.5719307334       -0.5202388351
 H         -2.2216688384        3.4628922571       -0.7119946322
 H         -0.7246936566       -0.1863816422       -2.0536609835
 H          1.6518072535       -0.0488854844       -2.6217803155
 H          2.1225280371        2.2744041724       -3.8273497007
 H          2.8933038518        1.8346545128       -6.1171642239
 H          5.0729843357        0.7407123436       -6.5081136236
 H          6.4759235791        0.0919652835       -4.5804639771
 H          5.6995524005        0.5152720935       -2.2871493255
 H          5.5255382207        3.2235844095       -1.9629723413
 H          7.1430613189        3.9077598144       -0.2458653215
 H          6.8693699158        3.1555571555        2.0908301723
 H          4.9669986935        1.6971565024        2.6891695911
 H          3.3721646145        0.9781584646        0.9656666179
 H          2.1172181263        3.1913876328        0.1299027212
 H         -0.2563370687        3.0378145853        0.7049346221
 H         -0.7121423365        0.3935768545        2.0708347611
 H          1.6476955755        0.0747967073        2.6364594389
 H          1.9518326812       -2.2736660837        3.8473975292
 H          2.7734561698       -1.9013422513        6.1315032565
 H          5.0368141810       -0.9867584649        6.5066612602
 H          6.4713185596       -0.4467393217        4.5687579898
 H          5.6458431894       -0.8024680888        2.2814916611
 H          5.2611438868       -3.4868199737        1.9582556189
 H          6.8096731785       -4.2911558547        0.2297670299
 H          6.5800767305       -3.5161267148       -2.1042336300
 H          4.7923392326       -1.9140243485       -2.6884388989
 H          3.2686599961       -1.0774305108       -0.9533784705
 H          1.8579949738       -3.1969211012       -0.1088095659
 H         -0.4954541687       -2.8578483928       -0.6866608706
 H         -2.4949397606       -3.1203861463        0.7162584336
 H         -4.9607314452       -3.0369182968        0.4860552496
 H         -9.8822074058       -2.8956471521        0.3830605787
 H        -11.8726949989       -1.4314616102        0.1551049565
 H        -11.6325784073        0.9767841876       -0.1791604534
 H         -9.3896354106        2.0348910277       -0.3028950376
