99
 energy: -155.703785843630 gnorm: 0.000050792480 xtb: 6.7.1 (edcfbbe)
C           -6.76000788340183        5.46341390852545        0.07384043401942
C           -5.47331926771324        5.69643398353436        0.53544034611645
C           -4.48327021363563        4.75441859299124        0.33141577797972
C           -4.77501015459174        3.56615158631009       -0.33644471481682
C           -3.73484345542767        2.55868212395551       -0.54193416360249
N           -4.07272251178835        1.43432483548022       -1.16642643110799
C           -3.08899527842271        0.56185689837951       -1.35829918266212
C           -3.41339566863920       -0.68617897446248       -2.04949766893222
C           -2.41121813376022       -1.42690617186632       -2.67110297410232
C           -2.72403498818453       -2.60953732362687       -3.31528468462608
C           -4.03316299020176       -3.06495137580521       -3.33520437457784
C           -5.03399578948184       -2.32949960327600       -2.71974386512985
C           -4.72931392148831       -1.14124538392558       -2.08415047726779
N           -1.83361412555598        0.74630934991814       -0.96135483836119
C           -1.60017353076953        1.87487969255560       -0.29514547956887
C           -0.26927606390772        2.06017307178148        0.28754500239590
C           -0.00955616793401        3.13410469374688        1.13805305995488
C            1.22591226137477        3.24020849381433        1.74785930071656
C            2.19386107705935        2.27017773270338        1.54423274667417
C            1.94823687404603        1.18577944939247        0.70339379310335
C            2.96361512932050        0.12930238496375        0.52605008897820
C            4.28888414808023        0.48003142556328        0.30113363073365
C            5.26282278950737       -0.49197163748151        0.10201967355713
N            6.59260977652370       -0.11492377948704       -0.13640849524710
C            7.01741956742846        0.79671359766789       -1.08294891262555
C            6.28149444868713        1.50265872724685       -2.02474554773718
C            6.96662173553380        2.34335612601000       -2.88134693380234
C            8.35212614818570        2.47831107521588       -2.81552021190771
C            9.09210489601038        1.76097949524906       -1.89654856517437
C            8.42607161230176        0.90906754216869       -1.02445626903569
C            8.86367793698338        0.02081546381809        0.01631596406303
C           10.10918124009516       -0.28984976396579        0.54767057563870
C           10.17795268663752       -1.19462246063966        1.58850620101090
C            9.02378535536604       -1.77766388933521        2.10841239428697
C            7.77389686317269       -1.48475863226234        1.59680431085409
C            7.70035618765879       -0.59332565001553        0.53542048586229
C            4.90716953846702       -1.83730557262671        0.13405316122492
C            3.59365821728534       -2.19260577663678        0.37241976068649
C            2.61322394413970       -1.22883006355703        0.57554859128264
C            1.21309205567971       -1.62083119429619        0.82261872989077
C            0.54918004341610       -1.21444728031603        1.97628310788703
C           -0.80516986396056       -1.43634919547888        2.12440272349730
C           -1.53144314096821       -2.03263168651149        1.09640447686138
N           -2.93042710945628       -2.09598142725603        1.15871137779513
C           -3.72398516900417       -3.15269814287627        0.75157320868962
C           -3.36609609210825       -4.44983455777462        0.41064563106839
C           -4.37438873682356       -5.33259802678544        0.07404529321796
C           -5.71335260300997       -4.94790637304481        0.08485178422626
C           -6.07893281717767       -3.66935723988334        0.45431992904461
C           -5.08193648782874       -2.76444027031625        0.79551806606173
C           -5.10285683105318       -1.40139307570581        1.24609754525104
C           -6.12570964169439       -0.48856220627965        1.46817311679115
C           -5.80097517452773        0.78018619327198        1.90381946032574
C           -4.47226714864782        1.14300026654463        2.10926697042476
C           -3.43799521367073        0.25309358596136        1.89042671642696
C           -3.75595172357736       -1.02845237372926        1.46225992225743
C           -0.85531346516574       -2.52497133486808       -0.01627222445596
C            0.50587026691021       -2.33488159087078       -0.14011173373701
C            0.72039591540056        1.11078944903282        0.05548715608639
N           -2.51193350096668        2.81954348394947       -0.08583975880761
C           -6.06983510625919        3.33859291777882       -0.79993716147384
C           -7.05553890092522        4.28465207578064       -0.59437960014281
H           -7.53245522797847        6.20078795491608        0.23476727081733
H           -5.24329895047318        6.61487471217372        1.05508401021479
H           -3.47625956208399        4.91893013941970        0.68255820232707
H           -1.39780839942721       -1.05601526660364       -2.64377033784156
H           -1.94542177769623       -3.17955058911470       -3.80088548158587
H           -4.27393688605339       -3.99315918530403       -3.83145824039355
H           -6.05306310711711       -2.68482634876104       -2.73497100086721
H           -5.49306117375524       -0.55623553896901       -1.59579478330607
H           -0.78559203822916        3.86241462061314        1.31384038582376
H            1.43190005575422        4.07290832142738        2.40402267697941
H            3.14025679621251        2.34063160945012        2.06005512325716
H            4.56724567197870        1.52279497219857        0.26831573867962
H            5.20954433407452        1.39437612890269       -2.09560517710434
H            6.41550298138641        2.90628800957992       -3.62073986631419
H            8.85048018913910        3.14813404663959       -3.50103927183652
H           10.16714591727440        1.85425185155514       -1.85566611164021
H           11.00244253958825        0.17272492263552        0.15487327636671
H           11.13699825184549       -1.45108895577919        2.01434063831778
H            9.10779941162353       -2.47170212744599        2.93213013782260
H            6.88456024656707       -1.92923847537885        2.01748813255946
H            5.65665353110665       -2.59436908344532       -0.03965506488597
H            3.31755069585277       -3.23621763716529        0.40675283625123
H            1.09776819252072       -0.70918671722265        2.75773583027763
H           -1.30794369097128       -1.13300421033941        3.03044602957983
H           -2.33557999966318       -4.76921244940307        0.42293390087759
H           -4.11806251627375       -6.34603295006728       -0.19762214205752
H           -6.47233675373592       -5.66650938250755       -0.18655973899365
H           -7.11711006811267       -3.37492759480232        0.48620430492441
H           -7.15438467353992       -0.76875741755778        1.29785560482250
H           -6.57868333431837        1.50794641397905        2.08160374331901
H           -4.24235480554870        2.14579379515848        2.44095906881200
H           -2.41250147699836        0.56477292675244        2.02720803022603
H           -1.41059260411775       -3.00734429357502       -0.80466013681304
H            1.01754251203593       -2.68532586700136       -1.02476738505290
H            0.50379307614542        0.30911888805391       -0.63137828814503
H           -6.27927750862606        2.41446320165572       -1.31577504471115
H           -8.05754999109481        4.10439206992145       -0.95474512925148
