99
 energy: -155.621801144926 gnorm: 0.000043424974 xtb: 6.7.1 (edcfbbe)
C           -6.80184982558607        5.43889223881365        0.10014165205843
C           -5.51271301815604        5.68483163559920        0.55768472705431
C           -4.51199127226803        4.76151700326183        0.35103883956166
C           -4.78093614130446        3.55971722277987       -0.32162233045869
C           -3.74628953551061        2.58483780121727       -0.53173345864708
N           -4.05916920664319        1.42229178895049       -1.18555182392456
C           -3.07007546922639        0.56370446757578       -1.36716896295974
C           -3.39119925112833       -0.69549797281590       -2.05252891772543
C           -2.38983947962246       -1.43168371901955       -2.67970631083649
C           -2.69789365106996       -2.62115454206892       -3.31384933458140
C           -4.00318542952156       -3.08770543141853       -3.32247318334792
C           -5.00385619117677       -2.35548422803907       -2.70308736032608
C           -4.70273299067498       -1.16232686430412       -2.07469510804658
N           -1.82471699152611        0.74975424333809       -0.98103864362581
C           -1.56828336898024        1.90867827159502       -0.28665006900051
C           -0.26822461941970        2.09515730900080        0.28245695807254
C            0.02018135336088        3.18903835007375        1.11914842652880
C            1.25379456361779        3.29013333835684        1.72103030494945
C            2.22104463843847        2.31023848194006        1.53437237702277
C            1.95818356494909        1.21586247715972        0.70461923422336
C            2.96527191871250        0.15421175200032        0.52585293786753
C            4.29331082605907        0.49248776965656        0.30186010329257
C            5.25891942014832       -0.48740320068958        0.09773623276097
N            6.59050622882625       -0.12198448094025       -0.13672690772601
C            7.02170305910753        0.80607054093931       -1.06365509457490
C            6.28896764709885        1.53893488891418       -1.98836254031222
C            6.98115684307371        2.38913580500641       -2.83108714981225
C            8.36774800553215        2.50500807807792       -2.76808759184520
C            9.10510327789887        1.75792118628004       -1.86677933857539
C            8.43257558529930        0.89884845847661       -1.01018560093657
C            8.86355781454462       -0.01935077816103        0.01104437447613
C           10.10451772907540       -0.35423936038576        0.53261405265824
C           10.16323982986206       -1.28257844771760        1.55686425738180
C            9.00413187743561       -1.86138354246890        2.06828008206496
C            7.75625244576092       -1.54287587134234        1.56494814632207
C            7.69333240733800       -0.63029595910611        0.51995151263187
C            4.89229961743040       -1.83218616520325        0.11192746772485
C            3.57430528863444       -2.17632032953136        0.33464408890571
C            2.60378684127014       -1.20444340144046        0.55689656869947
C            1.20577198885110       -1.58912792684292        0.80331078656007
C            0.53207581734088       -1.15328402530175        1.94400518497664
C           -0.81990767679825       -1.37428276281524        2.09040916706637
C           -1.54107349266501       -2.00188520074795        1.07308258232320
N           -2.93409407472460       -2.07344623560655        1.13241977379313
C           -3.71758200780528       -3.14398355322899        0.74135568975519
C           -3.34610244407025       -4.43934932277778        0.40606227163237
C           -4.34754572359792       -5.33858904030212        0.08826502069871
C           -5.68991812932219       -4.97124628020520        0.11493661251745
C           -6.06896451800126       -3.69349189531602        0.48443322824066
C           -5.08078353810219       -2.77515296642684        0.80554095600633
C           -5.11422394786376       -1.40895265552572        1.25475014719329
C           -6.14556583213715       -0.51076415235829        1.48557580627160
C           -5.83049097132733        0.76583907937009        1.91288815425744
C           -4.50526852710033        1.14862117509037        2.09786951064055
C           -3.46128975537504        0.27155293285982        1.86678953092943
C           -3.77006687134268       -1.01640915551602        1.45103569068333
C           -0.85479158586787       -2.52580826330144       -0.02176134386965
C            0.50573064643848       -2.33733454036352       -0.14164795888234
C            0.73303073448935        1.13813500927738        0.06341541465980
N           -2.52257186362154        2.80997619799727       -0.09195094886153
C           -6.08522589090754        3.32324319330417       -0.78042526039481
C           -7.07899185702035        4.25408438910831       -0.57003447204043
H           -7.58327797634661        6.16598575154876        0.26394273348124
H           -5.29393211444247        6.60679398307437        1.07800480673267
H           -3.50632301733664        4.94336160399401        0.70073858715623
H           -1.37897833220077       -1.05238699672832       -2.66364904051257
H           -1.91794040479971       -3.18688428535195       -3.80282701238009
H           -4.24108116797795       -4.01938558456692       -3.81367731249227
H           -6.02148951496945       -2.71604218777516       -2.71064561484410
H           -5.46870826568234       -0.57906979457131       -1.58665576658013
H           -0.74508192796211        3.93277319325322        1.28320396566915
H            1.46844412598922        4.13247226404459        2.36377327905957
H            3.16602003832130        2.38003823746954        2.05186947326208
H            4.57994338584597        1.53316226527741        0.28387532081699
H            5.21602119771751        1.44411796695664       -2.05720786219053
H            6.43363149191996        2.97343955731597       -3.55578440149933
H            8.87211168111651        3.18205642449299       -3.44144128064526
H           10.18100816536225        1.83689725172850       -1.83147983922565
H           11.00295089204202        0.10559994022507        0.14986136353745
H           11.11998004310329       -1.55778328060478        1.97516960109824
H            9.08090411223376       -2.57053197623447        2.87914981227207
H            6.86198822461048       -1.98142890163504        1.98025420177513
H            5.63444366760898       -2.59360739193097       -0.07288299220514
H            3.28693918649848       -3.21721675144491        0.35043908464952
H            1.07617590651021       -0.63007301661145        2.71612739515215
H           -1.32678762832170       -1.05653833452575        2.98871255601090
H           -2.31247793182693       -4.74720630119218        0.41044663896079
H           -4.08104425330052       -6.34994278795104       -0.17978244138386
H           -6.44373376427476       -5.70029482802016       -0.14168263662765
H           -7.11045272718631       -3.41424520547616        0.53008327942590
H           -7.17259695619497       -0.80283062360687        1.32716583560869
H           -6.61568339716350        1.48425393726308        2.09447193950281
H           -4.28501660771251        2.15594265624988        2.41973087415379
H           -2.43954063680775        0.60170499968265        1.97773820935022
H           -1.40507256402134       -3.01997894783479       -0.80616140517089
H            1.02170973784828       -2.70618432377168       -1.01590196655345
H            0.51354957400886        0.33633400579147       -0.62347492906718
H           -6.28618295011473        2.39805103928993       -1.29932143324694
H           -8.08040342844592        4.06135556926569       -0.92859935208602
