99
 energy: -155.622162236791 gnorm: 0.000064865319 xtb: 6.7.1 (edcfbbe)
C           -6.81176667656239        5.26174392425267       -1.27576956132423
C           -5.51728842188110        5.63057266926859       -0.92971153635545
C           -4.50789717795535        4.69362195132169       -0.90888725264070
C           -4.77331616680298        3.35552650878042       -1.23605156120166
C           -3.72987022571508        2.36646502760956       -1.20342766607080
N           -4.03765477217979        1.07685083508659       -1.54571775038763
C           -3.04224866437771        0.20580823494080       -1.51126105537089
C           -3.35497460442744       -1.18427677397190       -1.86914832269758
C           -2.34900595536714       -2.04312240085775       -2.30339763717810
C           -2.64915227800024       -3.35222823721087       -2.63205900149009
C           -3.95138094171083       -3.81550900539938       -2.52573943718969
C           -4.95642369119626       -2.96270977955466       -2.09698482418405
C           -4.66311843833401       -1.65149428710084       -1.77465658781147
N           -1.79960812628727        0.48851035766407       -1.18140303662470
C           -1.54903238004075        1.78557812077760       -0.79996567591836
C           -0.25285984948688        2.11201948825934       -0.28978322742958
C            0.03403677779034        3.38262465341913        0.24346589394384
C            1.26277642724197        3.63030628867802        0.81173907573219
C            2.22685015121706        2.63287058254371        0.89102365047231
C            1.96567432504416        1.36317612682501        0.36557736244174
C            2.96376737945555        0.28507342891367        0.48137841884383
C            4.29838194646599        0.54454720446167        0.20224794316599
C            5.25351884310839       -0.46620298931465        0.25706324266591
N            6.59417325537857       -0.18015447845990       -0.02190411071369
C            7.40707673485730       -0.88230631273648       -0.89002215808469
C            7.10273768909861       -1.96208455346759       -1.70849769814767
C            8.10955538734803       -2.46730972619309       -2.51060649520501
C            9.38632382522819       -1.91100396605923       -2.51121119573885
C            9.68745956330042       -0.81752839026524       -1.71886793961240
C            8.69342935315175       -0.29361439833198       -0.90561698499093
C            8.64380098979710        0.81930555503116        0.00582809540359
C            9.58032735628939        1.75303738580882        0.42435023496217
C            9.19894617931791        2.70073291285924        1.35736173422388
C            7.90916795977044        2.71169504575382        1.88280114014592
C            6.95938375593237        1.79050394111306        1.48123046893776
C            7.32820256447443        0.85415233136904        0.52453992631710
C            4.86482005102292       -1.76480930068398        0.58426763130084
C            3.53902324221891       -2.03166679185499        0.85797052286147
C            2.58047412915871       -1.02288822382993        0.83140476346875
C            1.17768515231362       -1.32009716466768        1.15156899792915
C            0.50014631354848       -0.60403410878556        2.13884153127449
C           -0.85372860062436       -0.77302983165836        2.32691998187997
C           -1.57368058728423       -1.63654765002847        1.49873539460887
N           -2.96626141768294       -1.68928745614566        1.56928627450610
C           -3.74952531392730       -2.82455659465775        1.46226192158505
C           -3.37764211094341       -4.16240494788337        1.46611448164488
C           -4.37876293074013       -5.11323656927340        1.38655851671002
C           -5.72134695615045       -4.75166628144930        1.32040029332405
C           -6.10073651418583       -3.42212393963485        1.35414562098333
C           -5.11278486107349       -2.45195087274772        1.43170089172021
C           -5.14682648086931       -1.01655821972627        1.52111327577291
C           -6.17861498477847       -0.08962470697050        1.51756308016957
C           -5.86422683129047        1.25370829684103        1.60796115906883
C           -4.53920491048377        1.67149921936930        1.68996052253700
C           -3.49493844825379        0.76484092103644        1.68812081593455
C           -3.80293108804744       -0.58638771946667        1.61139262200114
C           -0.88479705564940       -2.42502071526415        0.57755934155639
C            0.47735585081025       -2.28095971472167        0.42341076261828
C            0.74742038041023        1.12973015657450       -0.25019120781463
N           -2.50778781559124        2.70422239110376       -0.83944557662265
C           -6.08269273642089        2.99540948978083       -1.58613916666514
C           -7.08552173518233        3.94016240204663       -1.60431854549534
H           -7.60022174260034        5.99948959878465       -1.29037786103467
H           -5.30136415454951        6.65885502149952       -0.67556778926931
H           -3.49819429294974        4.96944674199329       -0.64225713410067
H           -1.34083610011363       -1.66433820737061       -2.38131071336402
H           -1.86556284498130       -4.01375265689241       -2.97233025927416
H           -4.18331290413582       -4.83961036966678       -2.77759546121482
H           -5.97141756282287       -3.32126974947166       -2.01427376190285
H           -5.43285860971334       -0.97329363479427       -1.43887852307041
H           -0.72851945313209        4.14591741644799        0.20453249706341
H            1.47598191329106        4.60833702264645        1.22013355642669
H            3.16678756946317        2.83155957931837        1.38305091496771
H            4.59318596945894        1.53644472359667       -0.10602225257544
H            6.11113167242324       -2.38690874439977       -1.73095381216805
H            7.89933587630619       -3.30883824205917       -3.15393336723192
H           10.14715178290537       -2.33499088302849       -3.14952329339319
H           10.67259607230650       -0.37676751283154       -1.73460156947270
H           10.58589659631934        1.73551273507442        0.03244350972994
H            9.91243064873656        3.43818980067267        1.69377779805644
H            7.64608999035461        3.45287789911326        2.62293053017771
H            5.96894499428263        1.79311513158751        1.90903614035697
H            5.60592685942482       -2.54653950908061        0.64875761347359
H            3.23897752680688       -3.03210090229632        1.13189981417438
H            1.04413689104234        0.09411125284847        2.75734587492683
H           -1.36317486692082       -0.23487858955951        3.11151513127570
H           -2.34385773396629       -4.45892622372386        1.54782755455323
H           -4.11172827057593       -6.15937820814952        1.38324756881433
H           -6.47482323692012       -5.52234548884696        1.25723176774859
H           -7.14234770617842       -3.14062366306713        1.32827664101162
H           -7.20555973042073       -0.41289836180790        1.43884886622159
H           -6.64969422998716        1.99440493919091        1.60193769154685
H           -4.31925168963578        2.72752829089853        1.74715188366125
H           -2.47335824205634        1.11286127116702        1.71174260824522
H           -1.43417802308237       -3.09953245306772       -0.05917599110142
H            0.99518346777956       -2.86308581840899       -0.32452335414256
H            0.53084783096379        0.18180277150144       -0.71643012516689
H           -6.28073344658173        1.96457459954220       -1.83846484426902
H           -8.09121630203114        3.65108100397250       -1.87544996878208
