  118
       -187.38647326
 C          6.8361585253       -4.3419006170        1.9327231196
 C          6.5371420843       -4.0425065780        0.6138102056
 C          6.9361747873       -2.8369281425        0.0655891177
 C          7.6371474569       -1.9251158405        0.8462339336
 N          8.0136438089       -0.6827195921        0.2994265762
 C          7.1444811413        0.3066956715       -0.1169174811
 C          5.7033661753        0.2436436415       -0.0443896781
 C          5.0015179367       -0.4885517869        0.9194331785
 C          3.6270456905       -0.5237664680        0.9062866677
 C          2.8841465925        0.1909579080       -0.0449404954
 C          1.4344373385        0.1329338350       -0.0572479736
 C          0.6678656643        1.3382852318       -0.0586115528
 C          1.2733590150        2.5959460934        0.0507016450
 C          0.5347178931        3.7678586079       -0.0450138079
 C         -0.8287341141        3.7046760989       -0.2591873679
 C         -1.4651298565        2.4709865519       -0.2972594966
 C         -0.7552287403        1.2755701748       -0.1330067348
 C         -1.4167057125        0.0101518893       -0.0773098374
 C         -2.8659729555       -0.0502978128       -0.0813508343
 C         -3.6237251625        0.6998336588        0.8299337775
 C         -4.9977513726        0.6452460551        0.8401142643
 C         -5.6863142938       -0.1406052372       -0.0909222423
 C         -7.1241514180       -0.2481566194       -0.1593486019
 N         -7.7279989146       -1.3069661217       -0.6555986061
 C         -9.0554070564       -1.0727783865       -0.5492124928
 C        -10.1280712512       -1.9331462026       -0.9222193340
 C         -9.9263778603       -3.1974604867       -1.4634151076
 C        -11.0095195684       -3.9956668292       -1.7913726380
 C        -12.2965800143       -3.5412041603       -1.5864749463
 C        -12.5358579894       -2.2721846162       -1.0493669728
 C        -13.8597374872       -1.7877330499       -0.8450810882
 C        -14.0787086369       -0.5496512180       -0.3479997089
 C        -12.9972272367        0.3135648215       -0.0049110652
 C        -13.2326847026        1.6023781384        0.4832957314
 C        -12.1807115116        2.4394397041        0.7886804107
 C        -10.8729738533        2.0090004365        0.6434929968
 C        -10.5898883605        0.7214996174        0.1878828310
 C        -11.6666470877       -0.1426964109       -0.1711335347
 C        -11.4398659940       -1.4430538162       -0.7050463018
 C         -9.2816907025        0.1859656150        0.0197528508
 N         -8.0320549572        0.6989095496        0.2729176502
 C         -7.7140991658        1.9507940840        0.8362133270
 C         -7.9958578681        2.2018475301        2.1761886268
 C         -7.6590383130        3.4237773683        2.7286984396
 C         -7.0403461905        4.3919606186        1.9534773055
 C         -6.7606347167        4.1395984105        0.6204678163
 C         -7.0964039456        2.9217884847        0.0566361105
 C         -4.9346973802       -0.9052735763       -0.9951143976
 C         -3.5627481844       -0.8687073509       -0.9852600694
 C         -0.6504083715       -1.1939911215       -0.0115480040
 C         -1.2577668789       -2.4453752331        0.1472448048
 C         -0.5181502262       -3.6202232577        0.1205665645
 C          0.8485725643       -3.5667156413       -0.0739384300
 C          1.4856029904       -2.3360146034       -0.1616146425
 C          0.7737310399       -1.1341524625       -0.0656839404
 C          3.5949375696        0.9646035227       -0.9763654898
 C          4.9678654233        0.9843165730       -0.9797841064
 N          7.7874742222        1.3450607737       -0.6041668192
 C          9.1054436518        1.0540095857       -0.5084363404
 C         10.2107379049        1.8723323859       -0.8802811282
 C         10.0589807443        3.1523875992       -1.4005955023
 C         11.1725047187        3.9066833989       -1.7304668642
 C         12.4404599125        3.3924043144       -1.5490503751
 C         12.6295059084        2.1060571717       -1.0337096953
 C         13.9328078696        1.5592669785       -0.8558790320
 C         14.1023311586        0.3045571427       -0.3817309948
 C         12.9877512637       -0.5143397440       -0.0358789957
 C         13.1710961454       -1.8204887975        0.4278103856
 C         12.0864558607       -2.6137294098        0.7359880569
 C         10.7977668143       -2.1218270410        0.6180015812
 C         10.5673380733       -0.8156212888        0.1867913536
 C         11.6770393453        0.0044444317       -0.1748918559
 C         11.5019910008        1.3216106594       -0.6864993009
 C          9.2822322726       -0.2199997779        0.0433723449
 C          7.9379991402       -2.2233795890        2.1721362958
 C          7.5377225818       -3.4330995357        2.7089691596
 H          6.5222321124       -5.2833361059        2.3570741538
 H          5.9927063858       -4.7505705639        0.0075402515
 H          6.7058133131       -2.5905678065       -0.9602516474
 H          5.5299047616       -1.0083032554        1.7030531825
 H          3.1011538899       -1.0734577816        1.6734089117
 H          2.3366023980        2.6588530235        0.2206771151
 H          1.0338649308        4.7221648717        0.0331830888
 H         -1.4065782410        4.6086892922       -0.3821117220
 H         -2.5304973278        2.4355053510       -0.4636563595
 H         -3.1096516641        1.2911388825        1.5738297593
 H         -5.5345530215        1.1922729737        1.5987324124
 H         -8.9134156589       -3.5361881986       -1.6143365808
 H        -10.8458372141       -4.9783210487       -2.2092105957
 H        -13.1405768712       -4.1652200666       -1.8442799195
 H        -14.6857374943       -2.4347952513       -1.1044160193
 H        -15.0844524708       -0.1816332191       -0.2018504705
 H        -14.2517679558        1.9391577959        0.6071093733
 H        -12.3720931801        3.4412610056        1.1448331638
 H        -10.0690134974        2.6879296130        0.8774597806
 H         -8.4767446496        1.4377932125        2.7696638353
 H         -7.8774984353        3.6184676671        3.7679132077
 H         -6.7767952770        5.3434907400        2.3894627998
 H         -6.2811409795        4.8941131532        0.0153801169
 H         -6.8796524499        2.7115694359       -0.9801857499
 H         -5.4664011052       -1.5169604553       -1.7067162116
 H         -3.0037423777       -1.4374101672       -1.7137845034
 H         -2.3236845206       -2.5011363276        0.3020197945
 H         -1.0188267608       -4.5698171023        0.2367814844
 H          1.4284202504       -4.4751453518       -0.1432042004
 H          2.5533833065       -2.3087611056       -0.3132787400
 H          3.0469105027        1.5089959692       -1.7312983079
 H          5.5107467502        1.5594211379       -1.7132693373
 H          9.0601687472        3.5373316584       -1.5339485606
 H         11.0475695447        4.9019236907       -2.1315610781
 H         13.3082805562        3.9819303067       -1.8089450594
 H         14.7836399199        2.1722756186       -1.1176537545
 H         15.0923263434       -0.1109501315       -0.2568479664
 H         14.1753584650       -2.2054200938        0.5307552838
 H         12.2369697579       -3.6287853097        1.0738494067
 H          9.9670317428       -2.7671606088        0.8536033851
 H          8.4821341012       -1.5048184013        2.7678377584
 H          7.7699023493       -3.6636327816        3.7378140146
