  90
       -140.45672309
 C         10.0967262874       -2.7976153844       -2.5839312361
 C          9.9198972069       -2.3041139565       -1.3021413703
 C          8.6466862196       -2.0767043037       -0.8138735875
 C          7.5271782285       -2.3440271706       -1.5984724333
 C          6.1722822384       -2.0968657725       -1.0822455717
 C          5.1460820939       -3.0173295426       -1.3291729336
 C          3.8574712966       -2.8232045916       -0.8719913613
 C          3.5935913793       -1.6714904517       -0.1491554294
 C          4.6117282475       -0.7315114221        0.1104412739
 C          5.8996351621       -0.9463640112       -0.3523984520
 C          4.0092569515        0.3325178615        0.8693111488
 C          4.5264170117        1.4786711693        1.4489258173
 C          3.6883900985        2.3021864247        2.1910734454
 C          4.2084241942        3.5250699886        2.8206406608
 C          5.4577556353        3.5294520406        3.4369279711
 C          5.9447688618        4.6771407919        4.0338710798
 C          5.1943757923        5.8410472150        4.0218487486
 C          3.9521343876        5.8491174240        3.4099463016
 C          3.4617239941        4.7010363624        2.8162137904
 C          2.3468641782        1.9417833426        2.3595509615
 C          1.8141516299        0.7999837536        1.7924880899
 C          2.6432751355        0.0039377638        1.0160486800
 N          2.3920938318       -1.2024268417        0.3735298973
 C          1.1671287271       -1.8155119910        0.2122139563
 C         -0.0059910997       -1.0783361235        0.0551764410
 C         -1.1868845467       -1.8051175080       -0.0928356687
 N         -2.4021641775       -1.1825344930       -0.2854715103
 C         -3.6194833619       -1.6325686449        0.2175008197
 C         -3.9100429685       -2.7671775491        0.9569460427
 C         -5.2128326516       -2.9468649099        1.3787831467
 C         -6.2276274840       -2.0290218722        1.0804567707
 C         -7.6017104886       -2.2682794792        1.5473051753
 C         -8.6880118733       -2.0147487578        0.7127529741
 C         -9.9800084661       -2.2401421361        1.1494418530
 C        -10.2095241611       -2.7176252539        2.4289777860
 C         -9.1375770166       -2.9701073976        3.2685111580
 C         -7.8445662778       -2.7499397709        2.8315375949
 C         -5.9267390683       -0.8923387329        0.3401027941
 C         -4.6243520216       -0.6918043846       -0.0869895578
 C         -3.9953254745        0.3543602614       -0.8490784919
 C         -4.4894941748        1.4957670565       -1.4573860173
 C         -3.6277201869        2.3015038263       -2.1917869917
 C         -4.1208306744        3.5234569721       -2.8442397680
 C         -3.3610515002        4.6909680216       -2.8345526602
 C         -3.8269283309        5.8395717670       -3.4466625623
 C         -5.0568743028        5.8402298593       -4.0829238795
 C         -5.8197101814        4.6845692695       -4.1010028787
 C         -5.3575480903        3.5365264069       -3.4852594310
 C         -2.2870496651        1.9248022634       -2.3277714327
 C         -1.7773593242        0.7870780225       -1.7320012157
 C         -2.6291216218        0.0124799655       -0.9582782701
 N         -1.1904537802       -3.1412567964       -0.0373577524
 C         -0.0216061191       -3.7311608265        0.0858716078
 N          1.1547962771       -3.1524311280        0.1901302103
 C          7.7171300257       -2.8428663881       -2.8852264220
 C          8.9910743541       -3.0652085316       -3.3737155864
 H         11.0915869831       -2.9723940440       -2.9659379765
 H         10.7785681007       -2.0977979211       -0.6797003228
 H          8.5141442556       -1.7078513314        0.1929735609
 H          5.3770249415       -3.9181871134       -1.8777768382
 H          3.0827383398       -3.5484897932       -1.0578146988
 H          6.6732474270       -0.2159074209       -0.1707659025
 H          5.5670844310        1.7318805175        1.3167772108
 H          6.0397021322        2.6196851433        3.4658470298
 H          6.9127856632        4.6633481864        4.5133147789
 H          5.5756304802        6.7373911426        4.4879574148
 H          3.3629732922        6.7545594447        3.3951088236
 H          2.4978077355        4.7175458257        2.3283905911
 H          1.7146838869        2.5599854715        2.9793518169
 H          0.7875255788        0.5337286810        1.9899251247
 H          0.0001188121       -0.0040796178        0.0459807138
 H         -3.1449632807       -3.4919515363        1.1807295996
 H         -5.4640610031       -3.8355747436        1.9381691007
 H         -8.5139510948       -1.6585687562       -0.2923256081
 H        -10.8121127793       -2.0448963629        0.4885053329
 H        -11.2191614869       -2.8922439948        2.7700555479
 H         -9.3103385820       -3.3383698739        4.2694176098
 H         -7.0135935985       -2.9320013427        3.4975638276
 H         -6.6908701435       -0.1623137883        0.1205512800
 H         -5.5305515329        1.7595717680       -1.3520301122
 H         -2.4080371604        4.7014375270       -2.3255080967
 H         -3.2289418956        6.7391104870       -3.4258087696
 H         -5.4190189348        6.7371452404       -4.5629671495
 H         -6.7778021068        4.6773672449       -4.6001222061
 H         -5.9483717797        2.6327041890       -3.5193976184
 H         -1.6359999389        2.5269497955       -2.9438381006
 H         -0.7499273896        0.5081686860       -1.9058765725
 H         -0.0283486930       -4.8132888588        0.1044705028
 H          6.8590528393       -3.0360196164       -3.5126083425
 H          9.1227300098       -3.4445463095       -4.3767091284
