  90
       -140.35915745
 C         10.1927447595       -2.8556995227       -2.3343312103
 C          9.6814024358       -1.5686281791       -2.3794976243
 C          8.3919389318       -1.3170750451       -1.9526627599
 C          7.5834735650       -2.3510962588       -1.4782254710
 C          6.2139322572       -2.0852013521       -1.0296922740
 C          5.1848100975       -2.9975010297       -1.3239174698
 C          3.8801319532       -2.7782286971       -0.9333692765
 C          3.5988632305       -1.6277768612       -0.2097157101
 C          4.6216814638       -0.6917332983        0.0969810729
 C          5.9214756434       -0.9253728371       -0.3138576385
 C          3.9989984006        0.3607765469        0.8460093965
 C          4.4843506648        1.5175173975        1.4282885196
 C          3.6187826248        2.3393119708        2.1458454907
 C          4.1045698412        3.5784756081        2.7577967864
 C          5.3694518245        3.6389764229        3.3448470172
 C          5.8235863098        4.8079279706        3.9236814628
 C          5.0283188441        5.9427729317        3.9225713923
 C          3.7721441352        5.8974906035        3.3396949097
 C          3.3125067154        4.7276748430        2.7666561098
 C          2.2740074826        1.9560448537        2.2963046091
 C          1.7716415063        0.8041064107        1.7266812385
 C          2.6243008280        0.0148805210        0.9651571950
 N          2.3956347534       -1.1794938893        0.3031237093
 C          1.1819413137       -1.8043725085        0.1076694499
 C         -0.0015713357       -1.0921742694       -0.0563793839
 C         -1.1744373730       -1.8182703275       -0.2357582790
 N         -2.3974853753       -1.2028555582       -0.4030579367
 C         -3.5893825700       -1.6685175512        0.1205991375
 C         -3.8534817144       -2.8387398010        0.8185013713
 C         -5.1468305272       -3.0647959454        1.2417627365
 C         -6.1840134250       -2.1489689409        0.9904724121
 C         -7.5415165537       -2.4215032838        1.4704932769
 C         -8.6521842442       -2.0977891645        0.6897607945
 C         -9.9318076679       -2.3576853610        1.1406806394
 C        -10.1296992991       -2.9380208282        2.3831435602
 C         -9.0357044102       -3.2605196541        3.1701433041
 C         -7.7548338410       -3.0089418369        2.7184194959
 C         -5.9109555257       -0.9759077289        0.2882936266
 C         -4.6194166736       -0.7257840587       -0.1381481754
 C         -4.0126199516        0.3513923396       -0.8653905749
 C         -4.5082988974        1.5267911356       -1.3995730415
 C         -3.6578923555        2.3680609671       -2.1132057268
 C         -4.1508321064        3.6316815226       -2.6660661542
 C         -3.3440730313        4.7709612378       -2.6661127388
 C         -3.8086438885        5.9655417471       -3.1807395403
 C         -5.0855895072        6.0471059922       -3.7123380679
 C         -5.8959098856        4.9230100761       -3.7214952248
 C         -5.4361634991        3.7288044540       -3.2016563301
 C         -2.3196356592        1.9834636327       -2.3132788966
 C         -1.8064714841        0.8148469485       -1.7895676867
 C         -2.6418086846        0.0080364928       -1.0274069746
 N         -1.1537652123       -3.1912795530       -0.1842833991
 C          0.0182717601       -3.7675882028       -0.0926995571
 N          1.1805771123       -3.1761059648        0.0178518161
 C          8.1096606501       -3.6432577849       -1.4408737904
 C          9.4022775902       -3.8905371408       -1.8606998818
 H         11.2013299880       -3.0511012453       -2.6666881584
 H         10.2908805166       -0.7583452202       -2.7524982865
 H          7.9935964717       -0.3145457906       -2.0102283769
 H          5.4196262493       -3.8778093220       -1.9021516672
 H          3.0968010721       -3.4790022013       -1.1722688512
 H          6.7064082529       -0.2303734421       -0.0568939129
 H          5.5229039654        1.7871683896        1.3120632170
 H          5.9871556160        2.7531473189        3.3696857364
 H          6.8014834801        4.8348899183        4.3820827752
 H          5.3853295505        6.8565488935        4.3735417582
 H          3.1491715806        6.7801234396        3.3303534082
 H          2.3396742389        4.7061644834        2.2974007236
 H          1.6241803798        2.5650674942        2.9058236075
 H          0.7462927960        0.5205936196        1.9054638702
 H         -0.0105592782       -0.0162641513       -0.0445324822
 H         -3.0669797533       -3.5509794822        1.0081609358
 H         -5.3762379500       -3.9798735472        1.7656085411
 H         -8.5061031351       -1.6649458078       -0.2891119534
 H        -10.7801908742       -2.1093774979        0.5195811078
 H        -11.1303501433       -3.1378493056        2.7361612865
 H         -9.1835461475       -3.7081734700        4.1421831237
 H         -6.9083139860       -3.2441452687        3.3466636153
 H         -6.6936360925       -0.2560284480        0.1029421718
 H         -5.5418869305        1.7967988510       -1.2460050169
 H         -2.3548458414        4.7216018444       -2.2349695459
 H         -3.1732163908        6.8391702891       -3.1656181307
 H         -5.4467493509        6.9805464198       -4.1173282476
 H         -6.8904821752        4.9785590162       -4.1396920344
 H         -6.0670967452        2.8526086445       -3.2332245645
 H         -1.6846076982        2.6063590532       -2.9242788160
 H         -0.7875945503        0.5315891319       -2.0032364137
 H          0.0265394062       -4.8499912813       -0.1088393992
 H          7.5065272175       -4.4515620127       -1.0544335345
 H          9.7973452934       -4.8950839750       -1.8176199740
