114
 energy: -175.005657416759 gnorm: 0.000048922700 xtb: 6.7.1 (edcfbbe)
C           -1.51079633571763       -0.31527786669538       -9.10880158852544
C           -0.41815190438877        0.26068146413121       -9.78412132021099
N            0.56186813581231        0.81640584270841       -9.08009693134131
C            0.60800951190042        0.77840758258685       -7.79220158240646
C           -0.38454481265002        0.12180002225546       -6.98316049204702
C           -0.32900100347355        0.13853424202715       -5.57927803098161
C           -1.47247031215174       -0.16713753588952       -4.76852071293990
C           -1.39009660795791       -0.23013530760687       -3.41202194034991
C           -0.18687872328483        0.02835919613868       -2.71787629785481
Si          -0.07705826433961        0.01712533397455       -0.85214956658400
C            1.57147051778763       -0.75676728354244       -0.31988484725076
C            2.30925344367330       -0.24728642277809        0.74328542288827
C            3.50634071266141       -0.81873781961876        1.12788101217939
C            3.99275403743756       -1.93267900688511        0.44987769173681
N            5.20383090520210       -2.52218681227253        0.83751180059955
C            5.54296369206774       -2.89862303843997        2.12109885995627
C            4.79209352177174       -2.83924546063265        3.28684129701969
C            5.36794633834279       -3.31486650581241        4.44942247793848
C            6.65549975378760       -3.84636900173793        4.45892937705987
C            7.39840293141912       -3.93016719947471        3.29742117670069
C            6.84158051271872       -3.45868408523486        2.11670621273699
C            7.30279605401147       -3.40718415686754        0.75690907697532
C            8.48456465435949       -3.78385830276361        0.13398919286250
C            8.61370395661378       -3.56926052854610       -1.22440257535777
C            7.58911469190176       -2.97385647459025       -1.95668820326418
C            6.40373170568436       -2.59011236060627       -1.35921995229708
C            6.25880670308070       -2.82526466005221        0.00093539256598
C            3.26755375326030       -2.45475714058688       -0.61769777739957
C            2.07720536496469       -1.86493890177961       -0.99356845124030
C           -1.50363245233747       -0.98366570467856       -0.10995073792046
C           -1.32397686748751       -2.28454933687264        0.34755887269829
C           -2.37557888097810       -3.01860437065037        0.86015702415752
C           -3.64596584200666       -2.45436847671774        0.93170057827512
N           -4.71857113247388       -3.19036734401926        1.45396184890813
C           -5.94793690033845       -3.36281654577300        0.85119324410932
C           -6.39605664228078       -2.91867108088115       -0.38502983235304
C           -7.68061502429007       -3.25772500290599       -0.76479490847637
C           -8.50271030149629       -4.02714158286211        0.05540771048069
C           -8.05375826471396       -4.49242727880591        1.27598077560338
C           -6.76680895111480       -4.16478504623831        1.67966646937049
C           -5.98369213383202       -4.48258583062112        2.84150768792629
C           -6.23885554629949       -5.20945136455412        3.99609376707636
C           -5.24610142043371       -5.30295492341792        4.95190139406819
C           -4.01778005940310       -4.67060167676793        4.77359471128527
C           -3.74022066272611       -3.94136781317312        3.63318637531317
C           -4.72516084115599       -3.86388519635363        2.65839082504911
C           -3.84217020204971       -1.15122231844751        0.48273039952791
C           -2.78059739372733       -0.43492648554594       -0.03292623807621
C           -0.15707441796756        1.76424599829823       -0.11036366652686
C            0.24649785458163        2.87370635878731       -0.84672063760606
C            0.21542904021008        4.14494990411071       -0.30842657678229
C           -0.23897006284958        4.33635028205287        0.99344978509242
N           -0.27436865074301        5.62254317735767        1.54953975777472
C            0.25328410086230        5.98671606606376        2.77155214628597
C            0.96040149703260        5.22500847198711        3.69140877939343
C            1.40579988916611        5.85059033681525        4.84014202853700
C            1.16558776235254        7.20300515572600        5.07177418464888
C            0.48378560275272        7.97192965088822        4.14880465545074
C            0.02624761766143        7.36591628936570        2.98697173597148
C           -0.67955380680088        7.84771552865181        1.83201828529572
C           -1.18523692617782        9.08868954635702        1.47042234193782
C           -1.84842613601513        9.20677128673436        0.26453536547380
C           -2.02278347599525        8.10401338566228       -0.56859281467571
C           -1.52896204044666        6.85854856193191       -0.23046648307255
C           -0.84049885728418        6.73907769166595        0.96875895227181
C           -0.65921400188365        3.23893265247044        1.73979272498631
C           -0.61161901560790        1.97374562613063        1.18894599681311
C            0.94811576548932        0.33097242522512       -3.50853533819781
C            0.88455542341659        0.40443518293279       -4.86489169984949
C           -1.48013155325225       -0.41200774316929       -7.75007702422062
H           -2.31813051350665       -0.74252284135294       -9.68408021586926
H           -0.31921152495886        0.25043562998639      -10.85636623580080
H            1.38289263022698        1.36938013234321       -7.32596919692656
H           -2.41936805527110       -0.35754532249932       -5.25005554935816
H           -2.27120448372123       -0.48046624537692       -2.83693288261850
H            1.94363029266444        0.62130257429652        1.27203062766197
H            4.08014607668541       -0.39831459606690        1.94090739940445
H            3.78700185862379       -2.44520610932740        3.28558255363602
H            4.80551055274846       -3.27704088222748        5.37068431692880
H            7.07118256373887       -4.20541443245201        5.38857224608479
H            8.38997471114097       -4.35688111930499        3.30226206963103
H            9.28496755857625       -4.23072173291770        0.70410646402135
H            9.52404649217498       -3.85718944944775       -1.72867363126131
H            7.72543813442669       -2.80488296752947       -3.01459662231182
H            5.62231579128489       -2.11333237349436       -1.93141074896101
H            3.63572768486161       -3.32874529409257       -1.13487514343425
H            1.52297201411993       -2.27250229984554       -1.82694851613055
H           -0.34157798371850       -2.73145359391595        0.29692781663534
H           -2.22549184376238       -4.03566381938291        1.19168848560572
H           -5.75980758480990       -2.33733049142903       -1.03507093631413
H           -8.05426081076475       -2.92174097928686       -1.72077357703798
H           -9.50150538279987       -4.26868920623361       -0.27625716414926
H           -8.68535197235208       -5.10221656836474        1.90416409081693
H           -7.19632164288810       -5.68633573883464        4.14164246880110
H           -5.42340323344753       -5.86573536772622        5.85621238839971
H           -3.26652915075129       -4.74903489872174        5.54556137706334
H           -2.79171268130191       -3.44039619291381        3.51152155072383
H           -4.82271810749700       -0.70409970308030        0.55777526231040
H           -2.94048429885979        0.57882831811622       -0.37160887214605
H            0.59641098716804        2.73437044687171       -1.85912855512271
H            0.55680180749667        4.99349845534167       -0.88300185361987
H            1.16695477898953        4.18066853078695        3.51232255228360
H            1.95584682324996        5.27890281218904        5.57301026318959
H            1.52784678889156        7.65461585902700        5.98322782307866
H            0.31205445292992        9.02366783142347        4.32110703323073
H           -1.06400712132232        9.93993212825277        2.12315665421220
H           -2.24718110523570       10.16391752852292       -0.03677680717444
H           -2.55907767528182        8.22410337998962       -1.49827953721894
H           -1.68424051392936        6.00608179357752       -0.87431476358346
H           -1.03459506538055        3.38850921802497        2.74171772303493
H           -0.94247026273065        1.12846420999936        1.77600271211269
H            1.88758282303789        0.52015108720122       -3.00616369414847
H            1.77762709757829        0.64682244804368       -5.42147382790842
H           -2.26253828607727       -0.95007614046679       -7.23845740054304
