114
 energy: -175.005656111165 gnorm: 0.000176480491 xtb: 6.7.1 (edcfbbe)
C           -1.14576319418693       -0.76334462289771       -9.10978622842092
C           -0.59441688657520        0.36201977818017       -9.75113813877207
N           -0.10495427134438        1.35458440048054       -9.01606467823987
C           -0.02797714841703        1.30234364291594       -7.73016509585434
C           -0.44917329561120        0.16383202313867       -6.95724331582413
C           -0.39487065573007        0.15701742260799       -5.55328083548942
C           -1.14115740824626       -0.78328876207248       -4.76757801470435
C           -1.01783300958605       -0.83984471440398       -3.41391440128091
C           -0.17416754424208        0.03831056858546       -2.69741872333130
Si          -0.05353110703880        0.01893862803953       -0.83233004854822
C            1.74723214794459        0.30605221348953       -0.30886730348841
C            2.07688446218920        1.11095373391982        0.77632558477695
C            3.39101588287014        1.30950953878688        1.15241952786111
C            4.41655061357684        0.69148852008029        0.44294784363630
N            5.75302710786745        0.88440079788086        0.81873452761157
C            6.26583850532876        0.72760329327839        2.09028284564589
C            5.63241154326280        0.31463527222581        3.25412076069243
C            6.39485746625327        0.21417104210758        4.40219656916859
C            7.75670876495595        0.50704552579712        4.39921847909059
C            8.39742586236902        0.89576026546532        3.23891031104825
C            7.65269386652930        1.00423890204760        2.07269031409641
C            7.98196000233315        1.35072447002813        0.71775618640778
C            9.15886710306754        1.73123059479308        0.08791249059815
C            9.12212773586128        2.02339543591694       -1.26158783415541
C            7.92926791627834        1.95441230644031       -1.97776804757235
C            6.74505224034147        1.57846762143877       -1.37313339754075
C            6.78054896123407        1.26016217319231       -0.02266941499385
C            4.10424458290936       -0.11693629168704       -0.64665659289494
C            2.78553892419430       -0.29659681633750       -1.01355236990872
C           -0.64343321977982       -1.64832798315191       -0.15366950837315
C            0.25154124346015       -2.64576687003105        0.21779890879433
C           -0.18784172674981       -3.87263820222658        0.67515359238136
C           -1.55250639661132       -4.12683001222195        0.77773177740709
N           -2.00812074708205       -5.36859073468414        1.24153678581357
C           -2.94826639738405       -6.16548878902497        0.62059545530132
C           -3.61126499067094       -5.97531407317604       -0.58383572802006
C           -4.49592532026403       -6.95421146928201       -0.99418152198931
C           -4.71460313470421       -8.10177130918887       -0.23534089585577
C           -4.03938705450422       -8.30809449356356        0.95183021494866
C           -3.14562726484404       -7.33864599170524        1.38530962723405
C           -2.27929769289954       -7.23163418028286        2.52645541668826
C           -2.04137060984136       -8.04594909025650        3.62497744737719
C           -1.13494924723783       -7.62337884651994        4.57771437468368
C           -0.48152142164061       -6.39956388841824        4.45222297803286
C           -0.70177072778799       -5.57157654461769        3.36813022937132
C           -1.59319564666205       -6.00189194403007        2.39522632007705
C           -2.46206727187000       -3.13648572180104        0.41696567199002
C           -2.00459520213340       -1.91883610088046       -0.04546839949241
C           -1.12085032178652        1.36948839609574       -0.02949143016451
C           -1.49377105561120        2.50566091197863       -0.74065191744195
C           -2.25907312453390        3.49843105710403       -0.16125347724925
C           -2.68277896121489        3.36677428149613        1.15816906996152
N           -3.46168600862375        4.36736598117274        1.75555971813879
C           -3.20897092274058        4.96508057018511        2.97334881997868
C           -2.14603641216426        4.77756971422162        3.84592349155921
C           -2.11936223387176        5.53435966428508        5.00168923723739
C           -3.11744374549984        6.46365781863779        5.28571347270263
C           -4.16472590872883        6.67217624988359        4.40947411399959
C           -4.21339648646119        5.92388554527714        3.24150068498082
C           -5.11613328697443        5.89121857088772        2.12418707251661
C           -6.28415107218646        6.57627284182169        1.81931621910691
C           -6.93533499789752        6.28023265436467        0.63767431782660
C           -6.44346612211608        5.30507301730950       -0.22702080514241
C           -5.28326113833285        4.60938687434934        0.05460102329044
C           -4.61170895679458        4.91933300616515        1.22906009172955
C           -2.32816995373104        2.23096743798277        1.88091584514502
C           -1.55497929997115        1.25257483674601        1.28833645640166
C            0.56605106821971        0.97145699196041       -3.46292929091162
C            0.45193283545126        1.04755042140901       -4.81588229509751
C           -1.04648898786249       -0.87520880161152       -7.75554228924427
H           -1.56648310602932       -1.55627981267627       -9.70936715069472
H           -0.52172624514140        0.45058030323895      -10.82186898169421
H            0.27034814656165        2.21423235913902       -7.23361927186571
H           -1.81199429979939       -1.46593109392491       -5.26627488004371
H           -1.58517435604656       -1.57425150993328       -2.85838076204209
H            1.28860537106602        1.60104513622222        1.32955748929122
H            3.63330859614182        1.95597850084252        1.98332439088934
H            4.58125290282697        0.06870429184547        3.26205192529828
H            5.92497171576523       -0.10217609907997        5.32178046458110
H            8.31741214884844        0.41861090592326        5.31777722796395
H            9.45598540391313        1.10731271733756        3.23334513810862
H           10.08024732592759        1.80027921848310        0.64616964154979
H           10.02699525163925        2.31907522149031       -1.77119197020480
H            7.92898369771370        2.20389960924186       -3.02850741100222
H            5.82221337047477        1.54502908888413       -1.93222805878698
H            4.89798408818392       -0.61015768497975       -1.18850086170071
H            2.55196528867935       -0.91979772086800       -1.86496659765050
H            1.31290049827950       -2.45828469581526        0.14225758518651
H            0.51888070768539       -4.64606255569398        0.93819650862417
H           -3.43458378822543       -5.09800474026707       -1.18751522840471
H           -5.02693286676219       -6.82844708847755       -1.92618498931845
H           -5.41619017626096       -8.84241369003458       -0.58913121470899
H           -4.19691816324888       -9.20500139269190        1.53157684003988
H           -2.55952570447562       -8.98708531914154        3.73043191890089
H           -0.93348890610422       -8.24313666205072        5.43867065541247
H            0.21028901252485       -6.08908271229028        5.22128771571368
H           -0.20387015801625       -4.61703690309864        3.28820953181341
H           -3.52118586008459       -3.32391826070567        0.51761166741454
H           -2.71767659085141       -1.15362120818362       -0.31733924337532
H           -1.17294437458245        2.61300977183054       -1.76654479534269
H           -2.52021742316565        4.38646474721053       -0.71796853496978
H           -1.35879661360640        4.07256350165554        3.62539800436485
H           -1.30436106888423        5.40513017047835        5.69853853024105
H           -3.06223195450190        7.03381035256892        6.20104038105333
H           -4.92909141362999        7.40416150766074        4.62227680804892
H           -6.67407116283918        7.32096062973611        2.49664584425588
H           -7.84422049237397        6.80343217728416        0.38050896941844
H           -6.98282161779018        5.08512150214638       -1.13646107219924
H           -4.91912529999706        3.84321612224682       -0.61304585396323
H           -2.67572789465803        2.11664311913280        2.89743367265114
H           -1.28888159839776        0.37218501917505        1.85649926227503
H            1.22997962245674        1.64939089352406       -2.94297792929899
H            1.03205201971607        1.78338992782946       -5.35259527016017
H           -1.36807584229336       -1.78474022415303       -7.27315114274572
