114
 energy: -175.104676394038 gnorm: 0.000038241747 xtb: 6.7.1 (edcfbbe)
C           -0.66607240859529       -0.78134747040153       -9.07262743100937
C           -0.69362537060278        0.49057749368345       -9.62527373144419
N           -0.63763822973141        1.59344091287612       -8.89815955809112
C           -0.54451664499075        1.47620762306972       -7.58840384054928
C           -0.49711777798746        0.25279891580963       -6.91665168996815
C           -0.38800449844847        0.18991098313233       -5.45524916422073
C           -1.12126395916300       -0.74349995751272       -4.72585416351610
C           -1.02107527108843       -0.79379875160995       -3.34952220773123
C           -0.18632110241118        0.07558483680054       -2.65449524605578
Si          -0.05672729286269        0.03121077966682       -0.76624268104923
C            1.75185793885503        0.30781292480618       -0.28100844283266
C            2.10201859766459        1.09302341979459        0.81298897320468
C            3.42249481446876        1.27811293123544        1.17185187871481
C            4.43508113097248        0.66414633913920        0.43966193603062
N            5.77583206457580        0.84018195407664        0.80131602897535
C            6.29966251388812        0.67217844478538        2.06842787886703
C            5.67449013770698        0.25810108006585        3.23583518584362
C            6.44720476112271        0.14363927274632        4.37559423317605
C            7.81174774878210        0.42363350983120        4.36110096132537
C            8.44407571226121        0.81185770219922        3.19700518980256
C            7.68853675981464        0.93409724152085        2.03838987708690
C            8.00898138803265        1.28347927842114        0.68271927960357
C            9.18506761160454        1.65567707706009        0.04519311289241
C            9.14092668719613        1.95605031873617       -1.30145636947366
C            7.94131277604998        1.90394436328227       -2.00773863881715
C            6.75839078767082        1.53639162849749       -1.39554877751045
C            6.80100955405465        1.20903703338758       -0.04788702192256
C            4.10120722656038       -0.12557754865184       -0.65770395035828
C            2.77674361046207       -0.29128266528819       -1.00932159956207
C           -0.64569081999099       -1.64676294042363       -0.11672148744787
C            0.25273470788094       -2.65423639968762        0.22092069669694
C           -0.18302121427896       -3.88601535269564        0.66781936530381
C           -1.54631839843364       -4.13680244324343        0.79695399453927
N           -1.99673466529478       -5.38194435661741        1.25139058194157
C           -2.96117574435917       -6.16266581920856        0.64468459706023
C           -3.65667220611027       -5.94953601059858       -0.53684571441717
C           -4.55746577963323       -6.91707311011248       -0.93880779735424
C           -4.76113776175468       -8.07634439911865       -0.19369548595719
C           -4.05412188069163       -8.30547530467459        0.96962418676555
C           -3.14292029983730       -7.34753778823924        1.39411579479863
C           -2.24365163145401       -7.26612447101469        2.51092609729569
C           -1.98123597687145       -8.10184528797514        3.58839055079792
C           -1.04609606803703       -7.70310786744557        4.52227606283612
C           -0.38768139935280       -6.48158674404702        4.39986014851988
C           -0.63182800677268       -5.63306589278519        3.33704345908981
C           -1.55250104606012       -6.03966898295503        2.38197137426844
C           -2.45832262953642       -3.13578412387576        0.47190428902079
C           -2.00609961432461       -1.91300424427362        0.01847762819861
C           -1.14500369598393        1.38343627548263       -0.01176174516502
C           -1.56846057858407        2.47947896015207       -0.75704183162681
C           -2.34235811726934        3.47535263023050       -0.19467631565839
C           -2.72176303657796        3.39035055341467        1.14212260267685
N           -3.50884918059421        4.39336210291290        1.71995278166238
C           -3.24363350733077        5.04301351077828        2.90976448807495
C           -2.15747530219686        4.91551029092191        3.76363544590648
C           -2.12305919683701        5.71784731968923        4.88801363515913
C           -3.13649219907386        6.63428375897783        5.15939518615192
C           -4.20704306537916        6.78332374682935        4.30067590128551
C           -4.26381405788798        5.98807669962732        3.16378941866829
C           -5.19035108996884        5.89235954557713        2.07063399267494
C           -6.38213967962276        6.53838806791916        1.76987133403070
C           -7.05463321213027        6.18308934883635        0.61785094291069
C           -6.56065019724187        5.18685636316136       -0.22126211523859
C           -5.37735786578022        4.52978518252847        0.05673729001790
C           -4.68430262419108        4.89984417836295        1.20034852631428
C           -2.31299737558573        2.29538843848884        1.89946136582178
C           -1.53285809901766        1.31285302556103        1.32410479186474
C            0.54831575102903        1.00178438654894       -3.39100551826830
C            0.45028476563769        1.06457592842776       -4.76641335111953
C           -0.56476609589126       -0.89981314514040       -7.69799059040062
H           -0.71547888814694       -1.65616498133683       -9.70270241436845
H           -0.76322432545988        0.63806713187114      -10.69482182705023
H           -0.52298541959134        2.40811717607023       -7.03779041662823
H           -1.78884067184449       -1.41874801716619       -5.24208411804574
H           -1.59848588522049       -1.52362879705416       -2.80005469577324
H            1.32446866255359        1.57835291093111        1.38506704674489
H            3.68020205398832        1.91026428488070        2.00879540497104
H            4.62131608274855        0.02102577940574        3.25377503135890
H            5.98310029966022       -0.17379090586751        5.29782822880380
H            8.38032524911339        0.32486920993964        5.27379303908621
H            9.50463661386713        1.01281198652041        3.18129683655854
H           10.11127355898318        1.71208952344590        0.59691608031643
H           10.04452412458659        2.24541887169566       -1.81701519722764
H            7.93470836547408        2.16028766952081       -3.05696397480175
H            5.83099304921284        1.51714272798057       -1.94805141486850
H            4.88343712852118       -0.61616501205734       -1.21809339379689
H            2.52875904238907       -0.90162514203391       -1.86630188044393
H            1.31324483731413       -2.46999988513004        0.12726217816808
H            0.52594112341290       -4.66569228742209        0.90436844925412
H           -3.49310274175438       -5.06307321650750       -1.13109005440645
H           -5.11364476915680       -6.77283144107720       -1.85345188221142
H           -5.47635473426656       -8.80736854886836       -0.54025263508722
H           -4.19944949833081       -9.21129550434410        1.53864830047001
H           -2.50390133986342       -9.04078810872623        3.69148636756413
H           -0.82522255959090       -8.33920932176705        5.36643855742253
H            0.32739201015138       -6.18915084219131        5.15469659635765
H           -0.12938694818353       -4.68044444963336        3.26135571077175
H           -3.51575158204838       -3.31947686031514        0.59326968003061
H           -2.72201033827901       -1.14022422184326       -0.22380776725911
H           -1.28222602028396        2.55452884338829       -1.79617094157331
H           -2.64474335806948        4.33113760893150       -0.77997441487543
H           -1.35756684934303        4.22165985133726        3.55299087721834
H           -1.28937725992698        5.63523479480048        5.56978265621694
H           -3.07419208388878        7.24122114900139        6.05033639375538
H           -4.98412904770734        7.50521497928999        4.50174482876710
H           -6.77286546357392        7.29878084008183        2.42909220501736
H           -7.98191773453710        6.67478438433424        0.36406789695428
H           -7.11687392395986        4.91914818973090       -1.10759300017920
H           -5.01279978993721        3.74656125958767       -0.59083518820245
H           -2.62496323168087        2.21527296526176        2.93043232264539
H           -1.22786026326162        0.46298987463381        1.91838093955579
H            1.21234152234052        1.67993716811560       -2.87323067460999
H            1.04177184937775        1.78097486363579       -5.31823670992835
H           -0.51754754487585       -1.87397843065805       -7.23176034872369
