114
 energy: -175.104672864181 gnorm: 0.000038809455 xtb: 6.7.1 (edcfbbe)
C           -0.34755889484997        1.36744390551747        9.02008338198684
C           -0.16064983764163        0.15034689162492        9.65861107772629
N            0.02307334672454       -0.98489291761782        9.00621426276302
C            0.03581915203998       -0.95502009931304        7.68833242809880
C           -0.12991726582986        0.20806230012318        6.93339109464646
C           -0.10039049495294        0.17483067967734        5.46723942572203
C           -1.00009191108994        0.93117111155738        4.71938398354510
C           -0.97423527207861        0.88941337742594        3.33934407448878
C           -0.05116501695046        0.10206278642110        2.65840678198417
Si          -0.01720138411664        0.01937120119498        0.76713304077341
C            1.79017243644104       -0.00543800986982        0.20531746332106
C            2.22151294573498       -0.82909342088266       -0.82983702234668
C            3.54083856757698       -0.84076060147518       -1.23718464295178
C            4.46815658526862       -0.00829414111862       -0.61626000060017
N            5.80668202832038       -0.01082697906712       -1.02560885399836
C            6.25431881670683        0.10294626838655       -2.32752060178209
C            5.53278915246802        0.29389538893625       -3.49718358726491
C            6.23883201846466        0.40540602058731       -4.67968765955088
C            7.63004902599621        0.33916237919193       -4.70589830888722
C            8.35454610388787        0.17489210713148       -3.54237720062517
C            7.66727589897415        0.06009986129987       -2.34127978327168
C            8.08449513267016       -0.09429252968335       -0.97575053408041
C            9.32547881326542       -0.21514006449703       -0.36459610947103
C            9.37504267328846       -0.37845369412180        1.00525582025543
C            8.20690134398326       -0.43774082754603        1.76189567554919
C            6.96077703985411       -0.31989282796856        1.17667180632710
C            6.90539994904535       -0.12993467445758       -0.19666918164793
C            4.05162394016842        0.82470082111471        0.41916707393834
C            2.73146014056566        0.81513040002655        0.82205792857919
C           -0.90728022274644        1.52376992917607        0.04063234949462
C           -0.20842181167290        2.63432148724353       -0.42217162808686
C           -0.86648181449775        3.74139336162951       -0.92063874785256
C           -2.25746335601629        3.75750641172963       -0.97614903225365
N           -2.93321892033748        4.87564312386883       -1.47893810958855
C           -3.98111066229251        5.53040589233335       -0.86149608919142
C           -4.56708746987469        5.29343964838978        0.37368265630918
C           -5.59451134960887        6.12744319717248        0.77114996446486
C           -6.02893108369751        7.18031461696055       -0.03091154749023
C           -5.43319408566252        7.43641099987821       -1.24958943787630
C           -4.39838505502540        6.61184363672454       -1.67076682279654
C           -3.55889546793209        6.59746144752278       -2.83592238563626
C           -3.49776692043627        7.38449420898632       -3.97829734089081
C           -2.56003197148600        7.07730649090398       -4.94364582676548
C           -1.70101761328411        5.99178780070787       -4.78763260415663
C           -1.74285277098151        5.19405109403591       -3.66022014155914
C           -2.66631635569094        5.51304911101390       -2.67502814013918
C           -2.97133746120991        2.64918976155056       -0.52717290454693
C           -2.29831078637401        1.55446819341316       -0.02350784396381
C           -0.89869523039184       -1.54527077189962        0.16960703875996
C           -1.08607930974236       -2.64172947651503        1.00547080448715
C           -1.70560306996634       -3.79091807394788        0.55554297106205
C           -2.16618945126092       -3.86518989288820       -0.75620191452468
N           -2.79775160811216       -5.02497730381562       -1.22012583589036
C           -2.49036691725359       -5.70121918509570       -2.38479706161622
C           -1.49463728065649       -5.44876248432895       -3.31749537499106
C           -1.38405394801104       -6.30983516207685       -4.39243440520775
C           -2.23374956744357       -7.40393878944694       -4.53892019192886
C           -3.20981537231120       -7.67479387588643       -3.60104862171209
C           -3.34053458598484       -6.82350556795088       -2.51184989710855
C           -4.20522329788274       -6.81259096176359       -1.36520621705282
C           -5.24452678516281       -7.63223064233391       -0.94545570479014
C           -5.90231153399021       -7.31826822113775        0.22688445774400
C           -5.54569446342126       -6.19465968392236        0.96912436922854
C           -4.51530951189538       -5.36411861684483        0.57199268989376
C           -3.83375681865112       -5.68880026708891       -0.59214987809968
C           -1.99446858804906       -2.77274445910326       -1.60277280514701
C           -1.36467528582450       -1.63516306039356       -1.13985695097542
C            0.85017919981408       -0.64520640580375        3.41288692096016
C            0.82761359114412       -0.61637426733909        4.79269686876872
C           -0.33022646195911        1.39476406104571        7.63700492725538
H           -0.49573837185005        2.27121360542202        9.59102814372512
H           -0.15699594110583        0.07582268133576       10.73794312062985
H            0.16878930909015       -1.91304660738066        7.20190289818379
H           -1.73673551899701        1.53846678395311        5.22602002396465
H           -1.68108360536323        1.48139361601767        2.77550598331651
H            1.51137165124895       -1.48320503998710       -1.31491269195383
H            3.86594678417641       -1.50476086370757       -2.02450999875967
H            4.45553987216471        0.36513652341424       -3.48584575177438
H            5.69964249848367        0.55092106543698       -5.60422580251448
H            8.14477377117295        0.42765746937693       -5.65102489632408
H            9.43339596320677        0.14035733930853       -3.55990090934599
H           10.22966601762702       -0.18620286878024       -0.95369561392113
H           10.32990625311698       -0.47192269159274        1.50075432455310
H            8.27633060672475       -0.58296801586267        2.82994138102133
H            6.06136549135358       -0.38607429454036        1.77026176648134
H            4.76480408193858        1.48422159577078        0.89136691233067
H            2.42030912676626        1.45976436055407        1.63204302121182
H            0.87143615462611        2.63205729180865       -0.38620993815898
H           -0.31078791421770        4.60531699214624       -1.25426677544733
H           -4.22597776600689        4.49154411114470        1.01108922603056
H           -6.06909106484822        5.96132747504162        1.72712817152013
H           -6.83699501861162        7.80791989905619        0.31431056250089
H           -5.75816428612071        8.26237510452177       -1.86407605283621
H           -4.17497788679658        8.21544329476336       -4.10609819899545
H           -2.49384199068866        7.67814749920374       -5.83842182498132
H           -0.98827484146283        5.76612342345147       -5.56718223453773
H           -1.08489312315535        4.34421184877012       -3.55772194308005
H           -4.04951597415715        2.64888217182181       -0.59150576746704
H           -2.86158342463384        0.69673698408219        0.31623102231666
H           -0.73563478237352       -2.59423096919767        2.02636888647346
H           -1.82297305977098       -4.64236335254665        1.20947383548109
H           -0.81871120074746       -4.61459704948867       -3.20387106438212
H           -0.61880027727359       -6.13255429890849       -5.13379826227506
H           -2.11682117548519       -8.05186274685707       -5.39481031687627
H           -3.85749937854647       -8.53217129663858       -3.70507458451390
H           -5.53134464223202       -8.49335481096044       -1.52994845267508
H           -6.71163256428443       -7.94392142144660        0.57268283748351
H           -6.08913337735310       -5.96511930116424        1.87389884245504
H           -4.25923716025899       -4.48568745440556        1.14510822720685
H           -2.37159384294944       -2.81855232820897       -2.61385082715155
H           -1.24232992563300       -0.79036874587976       -1.80301083487584
H            1.58508406790030       -1.25440617863932        2.90519666382885
H            1.54624359818701       -1.19290876333106        5.35731444241051
H           -0.44977869093734        2.32731694581132        7.10346905992031
