  72
       -119.18750001
 C         -3.3175179875        4.9321155249       -0.9457693961
 C         -2.5574201897        3.6922243308       -0.5937297207
 C         -1.1680915959        3.7043202336       -0.5155159238
 C         -0.4646914804        2.5635246237       -0.1989382631
 C         -1.1294255702        1.3600826529        0.0600575054
 C         -2.5230558378        1.3284936977       -0.0531278537
 C         -3.2100530727        2.4898588803       -0.3706575069
 C         -3.3043872827        0.0509023692        0.1135190729
 C         -4.4631047717        0.2363227474        1.0745841550
 C         -4.4143897553        0.5569377348        2.4127741515
 C         -5.6103908742        0.6779580548        3.1081286130
 C         -6.8254163808        0.4796290734        2.4702928860
 C         -6.8782072684        0.1559868908        1.1237601371
 C         -5.6887680125        0.0345035341        0.4247291408
 C         -5.4254604231       -0.2856015634       -0.9703473688
 C         -6.2837247308       -0.5659475463       -2.0204211782
 C         -5.7408284104       -0.8361703296       -3.2666248645
 C         -4.3685712739       -0.8258135977       -3.4635178720
 C         -3.5030307573       -0.5457588367       -2.4143875311
 C         -4.0390340978       -0.2791157097       -1.1747512475
 C         -2.4400465662       -1.1096978729        0.5335595705
 C         -3.0428436383       -2.3295762556        0.7955616623
 C         -2.3125845554       -3.4411040848        1.1887617671
 C         -2.9921928604       -4.7415280986        1.4820761597
 C         -0.9361741232       -3.3004853412        1.3319782597
 C         -0.3153164957       -2.0973555456        1.0779747032
 C         -1.0528031984       -0.9853723089        0.6582252257
 N         -0.4186968296        0.2190795352        0.3972003543
 C          0.9946110885        0.2807325101        0.4936994262
 C          1.5898892992        0.9234785012        1.5604997841
 C          2.9824428094        1.0248794986        1.7158744282
 C          3.7855056847        0.4550927906        0.7569380089
 C          3.1709946284       -0.2041060438       -0.3367178571
 C          4.1322687546       -0.7323292568       -1.2320429909
 C          3.6947447838       -1.3989030650       -2.3497000873
 C          2.3059517317       -1.5214958654       -2.5499461441
 C          1.3749305395       -1.0101633045       -1.6788341015
 C          1.7963776051       -0.3210991958       -0.5172649383
 C          5.4258148757       -0.3918534723       -0.6748033696
 N          6.6334283262       -0.6552989498       -1.1301629221
 C          7.6559998939       -0.2210513641       -0.4175262450
 N          8.9398863911       -0.3139115227       -0.5877727248
 O          9.5272255001        0.3217714235        0.4664038599
 N          8.6034729983        0.8333555172        1.3312394042
 C          7.4330321700        0.5377639735        0.8515823022
 N          6.2109535983        0.7862960055        1.2803337580
 C          5.2107394092        0.3379802102        0.5457934894
 H         -4.3555963691        4.8524552161       -0.6331447406
 H         -3.2983772921        5.0884462498       -2.0249075724
 H         -2.8704725999        5.8050459412       -0.4748741457
 H         -0.6298313340        4.6207633220       -0.7069545113
 H          0.6125951169        2.6000680632       -0.1546637984
 H         -4.2871350012        2.4471745964       -0.4484350685
 H         -3.4678622612        0.7110694090        2.9102929598
 H         -5.5938627060        0.9296978238        4.1581443236
 H         -7.7430568437        0.5796383190        3.0312629620
 H         -7.8268083827        0.0032506683        0.6309570898
 H         -7.3533941677       -0.5740389965       -1.8730064218
 H         -6.3953876742       -1.0572488393       -4.0969003909
 H         -3.9679488120       -1.0372724431       -4.4438234555
 H         -2.4338164473       -0.5335755435       -2.5701368191
 H         -4.1153636259       -2.4095694783        0.6893155721
 H         -3.8830652869       -4.8592600729        0.8697171174
 H         -3.2971966125       -4.7743458037        2.5287189567
 H         -2.3223307203       -5.5786781626        1.3007487866
 H         -0.3417945948       -4.1437592965        1.6508484113
 H          0.7522943562       -2.0136814206        1.2092605607
 H          0.9500585345        1.3686098923        2.3094555194
 H          3.3964764800        1.5347506300        2.5712208611
 H          4.3870507991       -1.8204020905       -3.0615344751
 H          1.9642774789       -2.0441108336       -3.4315890099
 H          0.3203572971       -1.1357746152       -1.8750378108
