90
 energy: -140.456860004643 gnorm: 0.000047749192 xtb: 6.7.1 (edcfbbe)
C            9.59663743664255       -4.50272506356116       -1.66460607119447
C            8.94205709406097       -5.01130161299532       -0.55528752111572
C            7.74999286659882       -4.45247916519832       -0.13373687090986
C            7.19403774778730       -3.37085039509753       -0.81289244414602
C            5.92791607425949       -2.77122663884761       -0.36469026430632
C            4.86919204661566       -3.58898466496211        0.04927525769277
C            3.66187315535581       -3.07107094139229        0.47526205622599
C            3.51817128340317       -1.69370280384941        0.49480713049160
C            4.57072401815890       -0.85219796258769        0.08004733168946
C            5.77204602023656       -1.39065745729714       -0.35104415546489
C            4.10122471853657        0.50064217968748        0.22284987989051
C            4.70628223010142        1.73033837397589        0.02444445186863
C            3.99784100190942        2.89097016794471        0.31169467349497
C            4.61031881341867        4.21195020722114        0.10637759471385
C            5.94189217219831        4.43868561281692        0.44685867834467
C            6.51527467978133        5.68211166849006        0.25747757349809
C            5.77023601685005        6.71875990130827       -0.27915956879659
C            4.44635562192596        6.50414118175768       -0.62378866396317
C            3.87002557081448        5.26258914886910       -0.43087987589725
C            2.70077951149187        2.79250087783231        0.82760936252535
C            2.08451282487879        1.57419367506248        1.03566638624045
C            2.77384061265484        0.42008056742909        0.69780643287496
N            2.41506159009954       -0.91509112787285        0.83543538849953
C            1.17236908479216       -1.40916374819167        1.17528434925507
C           -0.00478585945707       -0.77184647396566        0.78214570202514
C           -1.20285539801138       -1.37149467312568        1.17429358211021
N           -2.43240283451090       -0.85348183669443        0.82705564948648
C           -3.56682948960497       -1.61605094271077        0.55021744698636
C           -3.76299689573294       -2.98487231889660        0.63166190799410
C           -4.99589400817044       -3.48574098941603        0.26182762483298
C           -6.03126959922173       -2.66116101052731       -0.19446419235482
C           -7.32902711081714       -3.24265335659357       -0.57009466896713
C           -7.90939206605978       -4.24534849432435        0.20334282766444
C           -9.13156749820526       -4.78732486604393       -0.14802643021729
C           -9.79253262214425       -4.34070313624074       -1.28000614948244
C           -9.22407298977038       -3.34573833608646       -2.05750289462177
C           -8.00426603062550       -2.79920891126988       -1.70492643548968
C           -5.82196989199741       -1.29085534203669       -0.28770537006440
C           -4.59408607456107       -0.76970531055832        0.08585658164422
C           -4.07583509079125        0.57212334355457        0.12312653604428
C           -4.64058855674886        1.80123882846385       -0.17261327986413
C           -3.89167135063037        2.95655953013793        0.01584040789258
C           -4.45510638881800        4.27570530095255       -0.30717857360731
C           -3.67564898134637        5.24479020621495       -0.93487265533495
C           -4.20558730589888        6.48347834470752       -1.24399326713770
C           -5.52125000000018        6.77695668506226       -0.92710145958556
C           -6.30464690258351        5.82212021871390       -0.30076679113206
C           -5.77782230555396        4.58118076689143        0.00478823168838
C           -2.59845860800695        2.85465512333767        0.53964290339209
C           -2.02271334233996        1.63654435847472        0.84409139783058
C           -2.74860518101701        0.48156272469873        0.59685894349715
N           -1.20710894724901       -2.51681397859720        1.86546359443564
C           -0.03809334773443       -3.04484387477116        2.15243235772436
N            1.14737731106502       -2.55848016804889        1.85785181192572
C            7.86257024623087       -2.86601512738104       -1.92593679647763
C            9.05209529783159       -3.42901120982649       -2.34886349923886
H           10.52693985697530       -4.94116301046210       -1.99446986707027
H            9.36428651784194       -5.84629640172127       -0.01496051387792
H            7.25308895309057       -4.84264457217565        0.74264796690875
H            4.99604271080796       -4.66082770741050        0.01522389526553
H            2.85882109689647       -3.71520347230399        0.79338568007331
H            6.58188710225214       -0.74384119660643       -0.65288350298177
H            5.71443439898169        1.78381942287895       -0.35719345053237
H            6.52319366820327        3.63943120228115        0.88333151590663
H            7.54742039574843        5.84468935536842        0.53237286003843
H            6.21923790984162        7.68968402955212       -0.42770011568162
H            3.86109033510778        7.30804310948307       -1.04646325404085
H            2.84146324016416        5.09699044441852       -0.71754517508761
H            2.17768990255281        3.69682713924268        1.10108160830468
H            1.10604961280167        1.53712365539713        1.48700178363949
H            0.01353499558590        0.08515425268244        0.13279020164119
H           -2.98035401564382       -3.63554041019308        0.98428688952631
H           -5.16253174898095       -4.55162808745609        0.30907888921871
H           -7.40689848846550       -4.58563888582959        1.09715355213815
H           -9.57225273266843       -5.56034087648773        0.46490696492265
H          -10.74642696946567       -4.76609231444193       -1.55500627810248
H           -9.73318936789110       -2.99590703061779       -2.94405267432461
H           -7.55778176878849       -2.03514473792292       -2.32491666194834
H           -6.61142282680703       -0.63653344431893       -0.62524462955935
H           -5.64789888845178        1.85707541033881       -0.55605975452162
H           -2.65360525301485        5.01574873433845       -1.20041065282778
H           -3.59060094218755        7.22297156017170       -1.73630852124985
H           -5.93418204832662        7.74558999983203       -1.16706287864708
H           -7.33056098642597        6.04689595684469       -0.04724386897522
H           -6.38891860691614        3.84702976708039        0.50957708209375
H           -2.04333112714025        3.75908229244736        0.73970352109926
H           -1.04470773669572        1.60843049735788        1.29561006877771
H           -0.05325096645377       -3.98030761605080        2.69729799409263
H            7.43379257951490       -2.03955066741035       -2.47424789457931
H            9.55599340140871       -3.03036457960024       -3.21762314871448
