90
 energy: -140.362131014658 gnorm: 0.000090806489 xtb: 6.7.1 (edcfbbe)
C            9.57976315159302       -4.60577223480329       -1.52508902844203
C            8.85791274706723       -5.12678551938745       -0.46355605464449
C            7.66645791947768       -4.54286669574866       -0.07858367418154
C            7.17631985255925       -3.41919565653911       -0.74460087879983
C            5.91501796596669       -2.79380902491734       -0.33410457711680
C            4.82427734447933       -3.59229476309235        0.05129792845405
C            3.61734743220806       -3.04596222549942        0.43220436624289
C            3.50236575920607       -1.66249255358564        0.44860040792444
C            4.59026956477584       -0.83687276866686        0.06443536158729
C            5.78873613810269       -1.40611125729780       -0.32607303815159
C            4.13990073230534        0.51912383730408        0.20312881021362
C            4.74923541392109        1.74449865904744        0.00281481584185
C            4.04266985379117        2.91360156139921        0.27431997122262
C            4.66112832280596        4.22543650562813        0.06011056193428
C            6.00578442533669        4.44043666317254        0.36360453087285
C            6.58466098793000        5.67883996823533        0.16430537864228
C            5.83525863693200        6.72565256947279       -0.34761363811253
C            4.49984377995697        6.52440350655324       -0.65638586796360
C            3.91694502954280        5.28874143428502       -0.45195583360733
C            2.73391476918583        2.82597458740401        0.77897503097874
C            2.11048007295551        1.61435189485310        0.98684150999596
C            2.79954542120328        0.45119029622658        0.66853898206998
N            2.42219401793036       -0.87218290338288        0.78950401955641
C            1.17265455234429       -1.34984825873953        1.13951532628983
C           -0.00745171408586       -0.74221227045142        0.72734912214917
C           -1.20818704957028       -1.31357689929495        1.13321697238587
N           -2.44314533394053       -0.81094458643978        0.76931506030012
C           -3.54976234678052       -1.58305804265486        0.46994220392496
C           -3.71101506473236       -2.96113234029467        0.52252611699262
C           -4.93841282268876       -3.48573318548597        0.17830998541786
C           -6.00581342964235       -2.67227332268719       -0.24001874109158
C           -7.29129011578149       -3.27523072878987       -0.60624460382221
C           -7.81150545048010       -4.34491872711624        0.12301048622492
C           -9.02599520843391       -4.90744597634001       -0.21937365708793
C           -9.74154447605818       -4.41899384839011       -1.30050624132421
C           -9.23449831458357       -3.35918567468324       -2.03483536013983
C           -8.02368928295398       -2.79021746038684       -1.69022523564696
C           -5.83269317779477       -1.29128697159552       -0.30520933945228
C           -4.61307810442267       -0.74340181483606        0.04877678609144
C           -4.11947292728564        0.60232676809646        0.11644291754930
C           -4.69091142618387        1.83271070594113       -0.15226457136779
C           -3.94830215654404        2.99283477419380        0.05280717110765
C           -4.52295944128951        4.30816433800837       -0.24412761538189
C           -3.74192057467583        5.31339174837548       -0.81548785958421
C           -4.28403865195780        6.55105871039840       -1.10286002540848
C           -5.61461380156427        6.81289816269670       -0.81953430704875
C           -6.40009980701042        5.82465120491501       -0.24863541758609
C           -5.86210334152341        4.58401046349262        0.03372799982830
C           -2.64385763317334        2.89201019250070        0.56630109460149
C           -2.05819834173602        1.67506053218002        0.84184372326608
C           -2.78043773089953        0.51663719362082        0.58404465936047
N           -1.20062017471381       -2.48329625574180        1.86781530821712
C           -0.04358309027229       -3.02387705683848        2.14554789766270
N            1.13069460650780       -2.52284065689086        1.86684175800679
C            7.91468691925686       -2.90219535848152       -1.80954983632805
C            9.10229581314465       -3.49216827978627       -2.19694293370927
H           10.50926627574295       -5.06509361175026       -1.82728496009861
H            9.22796366300407       -5.99175224452727        0.06770357959027
H            7.11973102892995       -4.94297583517660        0.76268114307337
H            4.92806122081164       -4.66614936799387        0.01628155937479
H            2.78464415945018       -3.66843496961647        0.71922585282763
H            6.62634410949859       -0.78022648380547       -0.59494792064860
H            5.75914453449963        1.79215555576843       -0.37549092162525
H            6.59187533238291        3.63589134729723        0.78335292952008
H            7.62515292983962        5.83105913808106        0.41250292637376
H            6.28928455799507        7.69282051694692       -0.50460010620367
H            3.91129314083645        7.33532761762050       -1.06073247838374
H            2.88018983479242        5.13474997892269       -0.71377100647064
H            2.21602969633167        3.73541517026133        1.04375503595460
H            1.12399886707064        1.57871013566230        1.42095580781733
H            0.00963684171034        0.09490545382221        0.04882858457512
H           -2.89700182568236       -3.59615020505450        0.83453782434275
H           -5.07743235506943       -4.55596219741626        0.19893347073067
H           -7.26932456712642       -4.71832816271250        0.97935855225778
H           -9.41902264234720       -5.72998427298412        0.36055205131944
H          -10.68910561039989       -4.86183718925451       -1.56939977042221
H           -9.78549710274420       -2.97719094277804       -2.88215092534693
H           -7.62554604210082       -1.97724215254845       -2.27991268229854
H           -6.65091294265553       -0.65180189815184       -0.60049725951237
H           -5.69877958061621        1.88964982029315       -0.53466286304785
H           -2.70888244142586        5.11077349178966       -1.05820037145689
H           -3.66743862259681        7.31585637989802       -1.55274778924927
H           -6.03694045524996        7.78155491079610       -1.04212515656650
H           -7.43698522534979        6.02460161861703       -0.01993330577372
H           -6.47628089409235        3.82639601008333        0.49826200291084
H           -2.09779669854961        3.79787295716545        0.78219811848244
H           -1.07375141084181        1.63685080547376        1.27948479936970
H           -0.05935661626787       -3.95992903677003        2.68917082108027
H            7.53888019671093       -2.04637289301732       -2.35132369890360
H            9.65809818432299       -3.08436045820213       -3.02894834038508
