  78
  -119.975387965200       0.275377315738287      !
 C          1.6304109340        3.9538882535        1.4955427231
 C          0.5994111550        2.8997190133        1.0917295142
 C         -0.1101760614        2.4107127702        2.3715726507
 C         -0.4521494387        3.4480700624        0.1442096063
 C         -0.6706995930        4.7988573091       -0.0793648422
 C         -1.6828584842        5.2266046858       -0.9218773722
 C         -2.4840819047        4.3040840401       -1.5698281116
 C         -2.2714498770        2.9518451401       -1.3779220146
 C         -1.2721106866        2.5266302962       -0.5138843471
 N         -1.0072486937        1.1565152926       -0.3207057585
 C         -1.9888716872        0.2444867455       -0.1195226790
 N         -3.2569250988        0.6554609872       -0.1779115898
 C         -4.1740979096       -0.2777455543        0.0346072120
 C         -5.5783468345        0.1248081293       -0.0621881509
 C         -6.5870170462       -0.8328667010        0.0106515189
 C         -7.9105609832       -0.4526356401       -0.1000498914
 C         -8.2375735123        0.8820684141       -0.2817720368
 C         -7.2368691393        1.8389774198       -0.3511161897
 C         -5.9111944688        1.4657384174       -0.2428406465
 N         -3.9044419130       -1.5509009464        0.3124808317
 C         -2.6120792802       -1.8619689460        0.3842472796
 C         -2.2453590496       -3.2433830000        0.7012361067
 C         -0.9039386580       -3.6208871236        0.7266724600
 C         -0.5602282834       -4.9277648350        1.0131110274
 C         -1.5469692507       -5.8641796572        1.2808157092
 C         -2.8820031355       -5.4914971099        1.2614608367
 C         -3.2332678212       -4.1871045024        0.9718661390
 N         -1.6245003687       -1.0053723785        0.1743281108
 C          0.3600308257        0.8088747478       -0.2482877434
 C          0.8207036071       -0.3445256688       -0.8576732220
 C          2.1745651889       -0.6312495867       -0.7917638883
 C          2.9735749462       -1.7315307881       -1.2499636633
 C          2.6780945088       -2.9108604837       -1.9205142733
 C          3.7133395065       -3.7688788286       -2.2331292484
 C          5.0291010040       -3.4548158456       -1.8993415307
 C          5.3463852246       -2.2895180560       -1.2275059582
 C          4.3075800847       -1.4356284456       -0.8855474723
 N          4.3441869476       -0.2168586373       -0.2356980829
 C          5.4936047378        0.4213362296        0.2490903536
 C          5.7447948716        1.7507819567       -0.0793714588
 C          6.8792198126        2.3784948814        0.4002251422
 C          7.7757354126        1.6875308319        1.1985654500
 C          7.5296957991        0.3636979825        1.5228536948
 C          6.3917725230       -0.2691125374        1.0578088208
 C          3.0563384519        0.2779946983       -0.1698845774
 C          2.5869424341        1.4335045698        0.4372394955
 C          1.2287316223        1.6986659103        0.4089208928
 H          2.3490357770        3.5297340722        2.1921319362
 H          1.1402425825        4.7798947570        2.0041154914
 H          2.1601501338        4.3361354453        0.6258899614
 H         -0.8547459376        1.6517726439        2.1472476755
 H          0.6180184564        1.9826261851        3.0574409592
 H         -0.6081335074        3.2450757722        2.8612973246
 H         -0.0566642289        5.5382655591        0.4085846651
 H         -1.8408684700        6.2841978736       -1.0725735125
 H         -3.2676874166        4.6347487470       -2.2347961580
 H         -2.8771942014        2.2235614051       -1.8910755683
 H         -6.3120676194       -1.8668551315        0.1487531591
 H         -8.6920855481       -1.1965845614       -0.0462283504
 H         -9.2733790302        1.1769875930       -0.3689948166
 H         -7.4941341784        2.8788834604       -0.4913295794
 H         -5.1186498836        2.1967353764       -0.2930684482
 H         -0.1480395456       -2.8783517821        0.5213078273
 H          0.4801601050       -5.2190024244        1.0281000936
 H         -1.2751819180       -6.8853491754        1.5059452922
 H         -3.6488266303       -6.2226413927        1.4727061760
 H         -4.2666527413       -3.8779360707        0.9501648005
 H          0.1402897749       -1.0073432110       -1.3644654569
 H          1.6593951515       -3.1450664575       -2.1899299466
 H          3.5070024342       -4.6935185050       -2.7512426235
 H          5.8203999073       -4.1369111401       -2.1736569690
 H          6.3713966080       -2.0500445832       -0.9879007860
 H          5.0557886799        2.2784512931       -0.7217558224
 H          7.0690951671        3.4095939667        0.1410198889
 H          8.6638314652        2.1789576201        1.5658715293
 H          8.2240249044       -0.1777452254        2.1481554539
 H          6.1859235677       -1.2943725822        1.3262943785
 H          3.2761299888        2.0932997700        0.9371919215
  78
  -119.975141804200       0.212226884883753      !
 C          1.6383609467        3.9278356707        1.5474217578
 C          0.6057915704        2.8798846186        1.1315380303
 C         -0.1023351416        2.3754036382        2.4063142834
 C         -0.4458935213        3.4406240906        0.1914566494
 C         -0.6620093989        4.7942475850       -0.0163650662
 C         -1.6725870092        5.2335069024       -0.8548094432
 C         -2.4739242296        4.3198772836       -1.5150166045
 C         -2.2639594133        2.9650706340       -1.3385832466
 C         -1.2671251785        2.5280620810       -0.4775520226
 N         -1.0067806054        1.1553751502       -0.2958911053
 C         -1.9909353028        0.2440970180       -0.1038123991
 N         -3.2585944055        0.6528879856       -0.1823361013
 C         -4.1773135321       -0.2821730700        0.0147396704
 C         -5.5801886950        0.1157643272       -0.1153220034
 C         -6.5867884394       -0.8459724623       -0.0740120854
 C         -7.9082303184       -0.4703348756       -0.2201835625
 C         -8.2352137111        0.8639083687       -0.4053864593
 C         -7.2367552753        1.8248975758       -0.4426028219
 C         -5.9131765965        1.4561905100       -0.2992116085
 N         -3.9099526154       -1.5530468435        0.3049618555
 C         -2.6184434377       -1.8600396768        0.4042889213
 C         -2.2539548376       -3.2353793725        0.7488292962
 C         -0.9117814755       -3.6049158407        0.8160999108
 C         -0.5690460749       -4.9041905264        1.1363039644
 C         -1.5577410695       -5.8411745275        1.3943894035
 C         -2.8937485670       -5.4769587167        1.3306508936
 C         -3.2439614407       -4.1799674566        1.0081904323
 N         -1.6290442187       -1.0036195758        0.2019245698
 C          0.3594058044        0.8028593217       -0.2274583127
 C          0.8159573065       -0.3467692636       -0.8471631206
 C          2.1708308697       -0.6318047333       -0.7954490534
 C          2.9685249938       -1.7249473874       -1.2727899092
 C          2.6699546333       -2.8995027567       -1.9503043496
 C          3.7050900294       -3.7494398083       -2.2845326500
 C          5.0237365810       -3.4318809897       -1.9656820374
 C          5.3442137972       -2.2716416838       -1.2867181275
 C          4.3057811667       -1.4265525815       -0.9225456163
 N          4.3454588874       -0.2138922079       -0.2617790533
 C          5.4978050540        0.4229839222        0.2178135197
 C          5.7420010577        1.7563462706       -0.0998192436
 C          6.8789132620        2.3827008782        0.3757381977
 C          7.7843462871        1.6866850203        1.1594756977
 C          7.5450966944        0.3589913487        1.4729868638
 C          6.4051974266       -0.2727919205        1.0114864678
 C          3.0566914857        0.2750842571       -0.1757770519
 C          2.5907832434        1.4234967809        0.4471342494
 C          1.2320755907        1.6867129517        0.4324908728
 H          2.3580995857        3.4931942825        2.2364227238
 H          1.1502804669        4.7474448324        2.0683489832
 H          2.1665386566        4.3212673064        0.6818640036
 H         -0.8466794321        1.6185402962        2.1744668110
 H          0.6266691826        1.9397979739        3.0865971793
 H         -0.6002381669        3.2036005038        2.9064953786
 H         -0.0470664761        5.5267058813        0.4808641208
 H         -1.8292780612        6.2930378192       -0.9925727362
 H         -3.2558344281        4.6596035641       -2.1774258267
 H         -2.8700460474        2.2438878361       -1.8611582064
 H         -6.3118395988       -1.8794746897        0.0675902453
 H         -8.6879847916       -1.2173504893       -0.1910893508
 H         -9.2692443860        1.1552825967       -0.5203643997
 H         -7.4941086701        2.8645363204       -0.5847072516
 H         -5.1225563867        2.1905077687       -0.3240991763
 H         -0.1548223442       -2.8616776662        0.6171612632
 H          0.4720101499       -5.1889704792        1.1858070632
 H         -1.2867256659       -6.8562344911        1.6466669614
 H         -3.6621053520       -6.2086159131        1.5340840464
 H         -4.2778917457       -3.8768037619        0.9543086450
 H          0.1320394729       -1.0073176515       -1.3523732124
 H          1.6489250613       -3.1363050391       -2.2082810510
 H          3.4964157296       -4.6699181285       -2.8090282772
 H          5.8145842917       -4.1073649507       -2.2570739717
 H          6.3710672006       -2.0290379177       -1.0583972471
 H          5.0462334958        2.2878641939       -0.7316487663
 H          7.0639087178        3.4166012546        0.1244025317
 H          8.6740176301        2.1772972303        1.5240458673
 H          8.2463019301       -0.1862854123        2.0872077233
 H          6.2040877376       -1.3009654365        1.2723356216
 H          3.2833815652        2.0799357104        0.9468143553
  78
  -119.975062413500       0.195125918274635      !
 C          1.5995832230        4.0601958901        1.2432391080
 C          0.5701279128        2.9863195744        0.8896929464
 C         -0.1318683534        2.5468543304        2.1921193611
 C         -0.4946040617        3.4952625809       -0.0656671862
 C         -0.7331265381        4.8364263972       -0.3246580174
 C         -1.7698514412        5.2283854505       -1.1547456649
 C         -2.5814911712        4.2798922439       -1.7503746989
 C         -2.3482908334        2.9364224120       -1.5254085687
 C         -1.3179906366        2.5478791429       -0.6807354282
 N         -1.0255646740        1.1872511905       -0.4721141452
 C         -1.9815347712        0.2623834497       -0.2155753883
 N         -3.2542317123        0.6613181071       -0.1743225419
 C         -4.1405741764       -0.2797881069        0.1196356895
 C         -5.5483741952        0.1168794014        0.1812424300
 C         -5.9066599194        1.4527126443        0.0116888682
 C         -7.2362458560        1.8230110122        0.0698073492
 C         -8.2156781744        0.8683779155        0.2962830398
 C         -7.8632058772       -0.4613654144        0.4662171039
 C         -6.5355154615       -0.8387713172        0.4098887363
 N         -3.8379971176       -1.5539459807        0.3589040726
 C         -2.5428717367       -1.8564216174        0.3080457377
 C         -2.1358210145       -3.2399027194        0.5606135222
 C         -3.0890850823       -4.2117408346        0.8541285812
 C         -2.6972908465       -5.5171694547        1.0807498105
 C         -1.3564893817       -5.8628533581        1.0139386352
 C         -0.4039738215       -4.8983980023        0.7230508439
 C         -0.7882042871       -3.5907477262        0.4988650911
 N         -1.5834600605       -0.9863243204        0.0335724583
 C          0.3472203997        0.8608020027       -0.4030243317
 C          0.8209424234       -0.2835452312       -1.0194680648
 C          2.1672669181       -0.5872446320       -0.9010358162
 C          2.9798226832       -1.6741623089       -1.3673819589
 C          2.7033131548       -2.8355830764       -2.0761894075
 C          3.7381160567       -3.7112136894       -2.3370452862
 C          5.0299347741       -3.4475642018       -1.8866263122
 C          5.3276875987       -2.3011269921       -1.1745696148
 C          4.2971440150       -1.4052753098       -0.9288369959
 N          4.3108034256       -0.2158667542       -0.2256972928
 C          5.4239487740        0.3488021569        0.4110760460
 C          6.6162420416        0.5267875205       -0.2844527396
 C          7.7135260826        1.0731588047        0.3552361033
 C          7.6299422791        1.4560526823        1.6836362151
 C          6.4421317415        1.2859173792        2.3754866325
 C          5.3431676261        0.7303168778        1.7477091810
 C          3.0245475854        0.2864992006       -0.1987792327
 C          2.5549750731        1.4727995339        0.3452934386
 C          1.2030080884        1.7587469244        0.2583153861
 H          2.3193227354        3.6721112472        1.9592434189
 H          1.1090756672        4.9092699273        1.7118174804
 H          2.1289778774        4.3995525731        0.3557970033
 H         -0.8761130654        1.7783488502        2.0005420876
 H          0.5996069232        2.1476642612        2.8918226784
 H         -0.6299786925        3.3985414852        2.6508682397
 H         -0.1156405964        5.5970351901        0.1247894760
 H         -1.9414313615        6.2793368659       -1.3341973513
 H         -3.3880753604        4.5834996107       -2.4005886347
 H         -2.9607607899        2.1858838285       -1.9975081713
 H         -5.1297891789        2.1820124633       -0.1604992449
 H         -7.5132898941        2.8589733194       -0.0614726990
 H         -9.2547801137        1.1611488027        0.3405724907
 H         -8.6282239376       -1.2035571979        0.6424199082
 H         -6.2410344103       -1.8685114059        0.5388452950
 H         -4.1277101365       -3.9236856584        0.8996588485
 H         -3.4371102285       -6.2704582157        1.3095782319
 H         -1.0533755213       -6.8849005764        1.1899504067
 H          0.6411646447       -5.1676781780        0.6711230852
 H         -0.0589843345       -2.8268869481        0.2764431915
 H          0.1544655196       -0.9259834336       -1.5693446929
 H          1.6977735481       -3.0468653715       -2.4069680665
 H          3.5472552752       -4.6192064305       -2.8894062291
 H          5.8164374563       -4.1583926669       -2.0935442294
 H          6.3277636404       -2.1189727815       -0.8112918401
 H          6.6710874709        0.2472081161       -1.3258369055
 H          8.6366816175        1.2072623032       -0.1887852243
 H          8.4880726422        1.8843533030        2.1787922515
 H          6.3739410574        1.5778121814        3.4130833897
 H          4.4230753846        0.5716257738        2.2900885105
 H          3.2417208862        2.1491708082        0.8262149073
  78
  -119.974900949900       0.164479367417772      !
 C          1.5901076416        4.0051005700        1.3538502066
 C          0.5723328140        2.9288730286        0.9750277719
 C         -0.1515542695        2.4816335347        2.2622395520
 C         -0.4708913578        3.4353560378       -0.0039239738
 C         -0.6958398734        4.7748086445       -0.2828557462
 C         -1.7032477068        5.1615342417       -1.1504688093
 C         -2.4949493803        4.2087662302       -1.7660720993
 C         -2.2747012375        2.8669423152       -1.5190415967
 C         -1.2777232153        2.4834605329       -0.6329298281
 N         -1.0013100163        1.1227573290       -0.3951397107
 C         -1.9828561280        0.2171003423       -0.1673376448
 N         -3.2447318133        0.6520360623       -0.1580520515
 C         -4.1678568744       -0.2646539249        0.0934632772
 C         -5.5638756996        0.1755286905        0.1144147144
 C         -6.5872605646       -0.7471533463        0.3172970109
 C         -7.9035298571       -0.3276379296        0.3305448503
 C         -8.2085131841        1.0114211786        0.1424987396
 C         -7.1927635098        1.9336099344       -0.0574782563
 C         -5.8743882407        1.5211727321       -0.0722212150
 N         -3.9104839822       -1.5512882561        0.3188360596
 C         -2.6235474365       -1.8897902217        0.3090128797
 C         -2.2698551313       -3.2907963922        0.5454237140
 C         -0.9307278281       -3.6743627212        0.5923707590
 C         -0.5989066635       -4.9998012633        0.7953532183
 C         -1.5957997170       -5.9499613614        0.9549345248
 C         -2.9288176367       -5.5719399019        0.9129747236
 C         -3.2678967913       -4.2482879039        0.7089866455
 N         -1.6289250464       -1.0444430104        0.0830260119
 C          0.3685647124        0.7906329688       -0.3006414045
 C          0.8494365378       -0.3762445680       -0.8672338349
 C          2.2043422081       -0.6496878729       -0.7676897632
 C          3.0210422837       -1.7564570007       -1.1768297791
 C          2.7494708730       -2.9566682217       -1.8198918848
 C          3.7978979807       -3.8148603646       -2.0848066759
 C          5.1036480233       -3.4814745319       -1.7307480623
 C          5.3971664457       -2.2954065707       -1.0850871832
 C          4.3446239633       -1.4403957280       -0.7915138770
 N          4.3586808148       -0.2031666990       -0.1772188976
 C          5.4898032036        0.4528340753        0.3268328368
 C          5.7462252321        1.7744804368       -0.0279863453
 C          6.8596532960        2.4212484569        0.4750162379
 C          7.7299475024        1.7569731286        1.3235043829
 C          7.4791836955        0.4404956798        1.6734997992
 C          6.3622115532       -0.2112214246        1.1844110958
 C          3.0664846524        0.2837234320       -0.1544560559
 C          2.5774642107        1.4542418685        0.4063449334
 C          1.2186256087        1.7086947880        0.3431522147
 H          2.2998560739        3.6140240060        2.0783076944
 H          1.0866257271        4.8475035921        1.8209849992
 H          2.1317206924        4.3559614525        0.4783969246
 H         -0.8910602949        1.7126661488        2.0554489456
 H          0.5691580705        2.0810193114        2.9723917458
 H         -0.6590984994        3.3305290743        2.7158360714
 H         -0.0901322907        5.5371528941        0.1795570831
 H         -1.8662448217        6.2110671141       -1.3454725051
 H         -3.2758405558        4.5075736805       -2.4490874468
 H         -2.8721555407        2.1146222155       -2.0073119969
 H         -6.3297609086       -1.7847958990        0.4613096500
 H         -8.6967483661       -1.0440808974        0.4875055202
 H         -9.2387334963        1.3369785095        0.1527755245
 H         -7.4325640738        2.9770868570       -0.2019548057
 H         -5.0698352846        2.2245849190       -0.2238914766
 H         -0.1668994581       -2.9216411643        0.4710388826
 H          0.4400081974       -5.2947237298        0.8290673693
 H         -1.3335621501       -6.9860715120        1.1127255097
 H         -3.7036991887       -6.3141959576        1.0382219669
 H         -4.2994889365       -3.9350546650        0.6696745803
 H          0.1829261746       -1.0598376858       -1.3643765845
 H          1.7388274010       -3.2067919891       -2.1049457301
 H          3.6102820187       -4.7547409606       -2.5820036801
 H          5.9056659871       -4.1648755280       -1.9675560253
 H          6.4144776334       -2.0408134355       -0.8287165549
 H          5.0784172731        2.2807382875       -0.7088543079
 H          7.0536356688        3.4463817651        0.1956700005
 H          8.6009298655        2.2637454110        1.7106164960
 H          8.1527637756       -0.0798445523        2.3382290677
 H          6.1512136667       -1.2301303906        1.4729696339
 H          3.2522989666        2.1339806242        0.8991097821
  78
  -119.974831286600       0.152790513685553      !
 C          1.6138367130        4.0210736494        1.3326444865
 C          0.5838048958        2.9546826212        0.9587112023
 C         -0.1255128881        2.4995961283        2.2514292932
 C         -0.4719275404        3.4778133483        0.0011714786
 C         -0.7001478398        4.8223648226       -0.2494746332
 C         -1.7236212774        5.2264899990       -1.0899643895
 C         -2.5300359830        4.2868420254       -1.7064546358
 C         -2.3072617874        2.9403494339       -1.4888696244
 C         -1.2927718831        2.5394426664       -0.6308510553
 N         -1.0146642708        1.1750864815       -0.4225222167
 C         -1.9845411019        0.2605178288       -0.1801012553
 N         -3.2553310305        0.6681279244       -0.1799221405
 C         -4.1576230539       -0.2677467928        0.0804979347
 C         -5.5656921933        0.1330547849        0.0766356560
 C         -5.9144702042        1.4656948533       -0.1331590315
 C         -7.2451293479        1.8364332672       -0.1468937589
 C         -8.2351663966        0.8857660304        0.0481125012
 C         -7.8921714765       -0.4404572557        0.2598820965
 C         -6.5635094819       -0.8183069102        0.2750494459
 N         -3.8715801542       -1.5431988677        0.3335952154
 C         -2.5770551496       -1.8517211383        0.3373852568
 C         -2.1868203751       -3.2358307640        0.6121374703
 C         -0.8388025704       -3.5905216450        0.6158764193
 C         -0.4698984545       -4.8996643598        0.8569619334
 C         -1.4383596481       -5.8616924764        1.0996153002
 C         -2.7798222388       -5.5120933953        1.1013748657
 C         -3.1562011974       -4.2051563173        0.8577691372
 N         -1.6034937718       -0.9883796339        0.0930937358
 C          0.3551065045        0.8376772351       -0.3452198241
 C          0.8216942668       -0.3229063716       -0.9362165129
 C          2.1710298467       -0.6197714891       -0.8340456200
 C          2.9696191344       -1.7363641425       -1.2516024579
 C          2.6804943689       -2.9211596162       -1.9153542093
 C          3.7134057120       -3.7983228874       -2.1785082189
 C          5.0210396704       -3.4984243827       -1.8021528439
 C          5.3314138067       -2.3285342278       -1.1351345179
 C          4.2938035015       -1.4548958113       -0.8429707839
 N          4.3257311324       -0.2277720684       -0.2090526194
 C          5.4605124992        0.3832025861        0.3410923516
 C          5.7626608478        1.7062861906        0.0307531503
 C          6.8793260863        2.3070606308        0.5815355958
 C          7.7075898509        1.5953430535        1.4336156088
 C          7.4116033582        0.2772049816        1.7390640686
 C          6.2908138730       -0.3286528070        1.2023051837
 C          3.0436987800        0.2863600279       -0.1948840848
 C          2.5705678095        1.4579526149        0.3774197678
 C          1.2158418280        1.7352562627        0.3110624199
 H          2.3289248587        3.6202124056        2.0464246573
 H          1.1228206692        4.8642936705        1.8112578279
 H          2.1478805447        4.3730545667        0.4528626206
 H         -0.8752895194        1.7402825655        2.0457676844
 H          0.6012631727        2.0830471748        2.9458671753
 H         -0.6179837997        3.3477118435        2.7227218473
 H         -0.0848006200        5.5757589228        0.2148945588
 H         -1.8881009057        6.2797375748       -1.2624834470
 H         -3.3244245052        4.6000515324       -2.3670609842
 H         -2.9156903090        2.1968986595       -1.9769857293
 H         -5.1298036065        2.1923202041       -0.2802215527
 H         -7.5150045768        2.8696763642       -0.3105151931
 H         -9.2750550290        1.1789842788        0.0352984511
 H         -8.6650062078       -1.1794117474        0.4136251751
 H         -6.2761144518       -1.8451156392        0.4386142357
 H         -0.0973561068       -2.8284824020        0.4299918313
 H          0.5757179309       -5.1722063665        0.8549749006
 H         -1.1473885809       -6.8850219864        1.2881923600
 H         -3.5320573161       -6.2634447948        1.2930409109
 H         -4.1948567692       -3.9138558941        0.8536309461
 H          0.1479116980       -0.9864485539       -1.4506351268
 H          1.6685813650       -3.1448364593       -2.2173240150
 H          3.5121264843       -4.7270914747       -2.6912851841
 H          5.8112168398       -4.1960245569       -2.0379300595
 H          6.3503881617       -2.1005807302       -0.8608883246
 H          5.1280776135        2.2499657974       -0.6530739956
 H          7.1087116111        3.3338246047        0.3372710174
 H          8.5810149526        2.0666744739        1.8583412660
 H          8.0520567389       -0.2803958113        2.4063860009
 H          6.0440156099       -1.3485675297        1.4561798795
 H          3.2530409017        2.1195250557        0.8840796863
