  78
       -120.46284583
 C          1.5742991679        4.0174932219        1.3354825387
 C          0.5608275841        2.9361676190        0.9596527275
 C         -0.1660469337        2.4944417233        2.2470848655
 C         -0.4805794662        3.4339202865       -0.0256908009
 C         -0.7083874188        4.7710655534       -0.3132392770
 C         -1.7140084164        5.1498194332       -1.1864240028
 C         -2.5009745616        4.1912025695       -1.7990118161
 C         -2.2777547154        2.8514852328       -1.5433653989
 C         -1.2826337845        2.4760541225       -0.6517358038
 N         -1.0031655107        1.1175633726       -0.4050336110
 C         -1.9828972002        0.2104720725       -0.1751372909
 N         -3.2460204381        0.6418635587       -0.1725644955
 C         -4.1673788978       -0.2759549913        0.0813017482
 C         -5.5646974181        0.1603702402        0.0950677635
 C         -6.5861369367       -0.7640111819        0.3000073773
 C         -7.9036228082       -0.3481711174        0.3064540619
 C         -8.2117643335        0.9888870070        0.1095280934
 C         -7.1979681498        1.9127705102       -0.0925285112
 C         -5.8783913735        1.5040057151       -0.1005050056
 N         -3.9071189356       -1.5605055689        0.3150883272
 C         -2.6192057401       -1.8953972262        0.3114929206
 C         -2.2623406652       -3.2939783604        0.5573073801
 C         -0.9222976742       -3.6734513960        0.6109178786
 C         -0.5874064522       -4.9967251407        0.8227880252
 C         -1.5821335488       -5.9487631026        0.9846765301
 C         -2.9160680454       -5.5747881362        0.9361059005
 C         -3.2582088151       -4.2533274522        0.7232167849
 N         -1.6262335134       -1.0485665541        0.0838097175
 C          0.3673219920        0.7898980692       -0.3040744763
 C          0.8533600883       -0.3789158295       -0.8622043174
 C          2.2086961986       -0.6479142616       -0.7565941363
 C          3.0298687308       -1.7547405981       -1.1565236321
 C          2.7638178298       -2.9594771778       -1.7934016184
 C          3.8155358575       -3.8162252363       -2.0498094095
 C          5.1191605161       -3.4770518449       -1.6934234542
 C          5.4071895824       -2.2863805237       -1.0537912900
 C          4.3512704105       -1.4326570162       -0.7687204575
 N          4.3597997619       -0.1918049681       -0.1616743045
 C          5.4873908244        0.4703610561        0.3422280448
 C          5.7412501868        1.7906238719       -0.0195170795
 C          6.8511766464        2.4435008409        0.4833322434
 C          7.7205327070        1.7867007395        1.3385746163
 C          7.4723328655        0.4715944787        1.6954842870
 C          6.3588303190       -0.1861597972        1.2065659892
 C          3.0661649726        0.2915327605       -0.1460301084
 C          2.5719872077        1.4639302733        0.4062601785
 C          1.2126516120        1.7141411256        0.3370993392
 H          2.2827494011        3.6327006124        2.0645609174
 H          1.0668968841        4.8611908229        1.7959921313
 H          2.1178116568        4.3647434219        0.4597668441
 H         -0.9026894619        1.7221720935        2.0423905528
 H          0.5534413681        2.1000587923        2.9619504883
 H         -0.6774850553        3.3445406013        2.6940049145
 H         -0.1063688994        5.5378335379        0.1466700787
 H         -1.8793240914        6.1977205038       -1.3881362358
 H         -3.2804432686        4.4837691595       -2.4863401296
 H         -2.8714628223        2.0946127312       -2.0291635676
 H         -6.3261845397       -1.8000529714        0.4509707568
 H         -8.6953289148       -1.0659329554        0.4650168750
 H         -9.2429286538        1.3115672244        0.1144981571
 H         -7.4402365710        2.9546941663       -0.2439318761
 H         -5.0753316121        2.2088003765       -0.2536635411
 H         -0.1602017750       -2.9192860019        0.4876728223
 H          0.4522202725       -5.2884879376        0.8616562252
 H         -1.3174931909       -6.9831780882        1.1494245170
 H         -3.6892595404       -6.3184966885        1.0631682676
 H         -4.2905461082       -3.9432663344        0.6786671385
 H          0.1904317557       -1.0673113812       -1.3575063653
 H          1.7548334652       -3.2141453699       -2.0803031435
 H          3.6322216360       -4.7595408634       -2.5420813555
 H          5.9238849412       -4.1595482687       -1.9235646676
 H          6.4229238508       -2.0273926252       -0.7955766880
 H          5.0742704359        2.2909707353       -0.7055467378
 H          7.0431850021        3.4675227602        0.1985978389
 H          8.5887946157        2.2982143596        1.7255620652
 H          8.1451778517       -0.0429128724        2.3654774900
 H          6.1497585533       -1.2039517807        1.5004198545
 H          3.2432652247        2.1484695014        0.8972345046
  78
       -120.46280677
 C          1.5975087346        4.0326907901        1.3171235294
 C          0.5718797857        2.9613108157        0.9453552143
 C         -0.1402865240        2.5107597856        2.2380958742
 C         -0.4822811952        3.4763447967       -0.0182856326
 C         -0.7136860341        4.8188995642       -0.2765977350
 C         -1.7356152463        5.2156289159       -1.1224727689
 C         -2.5372166082        4.2704112943       -1.7367220015
 C         -2.3111443616        2.9257290370       -1.5114780347
 C         -1.2982652683        2.5322813271       -0.6481202241
 N         -1.0167768117        1.1698538386       -0.4318608071
 C         -1.9847108298        0.2536448327       -0.1878739130
 N         -3.2567025398        0.6574438617       -0.1939153270
 C         -4.1570475968       -0.2797758747        0.0683992577
 C         -5.5662837474        0.1167829475        0.0579066170
 C         -5.9183427126        1.4472757513       -0.1598842181
 C         -7.2500479603        1.8139529150       -0.1798432238
 C         -8.2378800955        0.8613416532        0.0168505762
 C         -7.8916297017       -0.4627416357        0.2365644590
 C         -6.5619050775       -0.8365285225        0.2579862429
 N         -3.8680344325       -1.5530467339        0.3289937307
 C         -2.5726158175       -1.8576682088        0.3385703931
 C         -2.1791588181       -3.2391713255        0.6217172493
 C         -0.8301103005       -3.5898006973        0.6316542106
 C         -0.4580972981       -4.8965753128        0.8806794097
 C         -1.4244751492       -5.8602375076        1.1251479359
 C         -2.7669712655       -5.5146519289        1.1207568835
 C         -3.1464442628       -4.2101182575        0.8691986558
 N         -1.6008386784       -0.9926840361        0.0929889815
 C          0.3537334181        0.8369494121       -0.3483803342
 C          0.8256968859       -0.3252573717       -0.9318710462
 C          2.1755704117       -0.6175516212       -0.8237977721
 C          2.9788363094       -1.7338818551       -1.2330023950
 C          2.6954036542       -2.9229370217       -1.8915717328
 C          3.7317735905       -3.7983461401       -2.1468510122
 C          5.0372761542       -3.4926015012       -1.7678096918
 C          5.3419917114       -2.3183709616       -1.1058281246
 C          4.3008388693       -1.4463514476       -0.8215367211
 N          4.3270480381       -0.2158923097       -0.1938523396
 C          5.4582075027        0.4012996012        0.3568115132
 C          5.7574244830        1.7236676875        0.0406373331
 C          6.8704962884        2.3306086046        0.5919325029
 C          7.6980957686        1.6257674736        1.4503503514
 C          7.4050417889        0.3083381179        1.7616283618
 C          6.2878152371       -0.3036262537        1.2243693269
 C          3.0434513044        0.2944651490       -0.1864901318
 C          2.5649727974        1.4675649519        0.3782301314
 C          1.2096505186        1.7404662020        0.3060530994
 H          2.3114586299        3.6376500745        2.0352748402
 H          1.1024281342        4.8768882539        1.7897897236
 H          2.1333648492        4.3817378789        0.4372747549
 H         -0.8871253290        1.7481566919        2.0339216800
 H          0.5854608767        2.0999671149        2.9370240088
 H         -0.6368127102        3.3598108350        2.7034114645
 H         -0.1021003124        5.5765118817        0.1858739929
 H         -1.9026671985        6.2674777550       -1.3009510423
 H         -3.3303783299        4.5778379819       -2.4015057123
 H         -2.9157637134        2.1779584046       -1.9977250630
 H         -5.1353681444        2.1754808875       -0.3081460151
 H         -7.5224639074        2.8455278524       -0.3496625711
 H         -9.2785898620        1.1513753335       -0.0008456096
 H         -8.6627575697       -1.2032058976        0.3916085975
 H         -6.2719884722       -1.8616170427        0.4277725715
 H         -0.0903344402       -2.8265114400        0.4442484140
 H          0.5883268135       -5.1659921212        0.8834867731
 H         -1.1310743647       -6.8817074742        1.3199397283
 H         -3.5175862852       -6.2672560874        1.3138539645
 H         -4.1859435279       -3.9219540388        0.8601920511
 H          0.1555718794       -0.9934518268       -1.4450438572
 H          1.6851499603       -3.1511932380       -2.1956631579
 H          3.5349316320       -4.7303391717       -2.6554833595
 H          5.8302905043       -4.1890365991       -1.9974251365
 H          6.3593842500       -2.0859596644       -0.8294589529
 H          5.1234559483        2.2619193787       -0.6480367374
 H          7.0976181772        3.3567844151        0.3431233089
 H          8.5687257579        2.1018908300        1.8754698301
 H          8.0449756173       -0.2439018578        2.4338883138
 H          6.0432290875       -1.3229556237        1.4826967087
 H          3.2438193770        2.1337758010        0.8836827156
  78
       -120.46270134
 C          1.5848389660        4.0722518431        1.2225183072
 C          0.5593458319        2.9932667161        0.8730352700
 C         -0.1444359307        2.5595897445        2.1764379472
 C         -0.5046078475        3.4933447973       -0.0878573490
 C         -0.7464177844        4.8322249444       -0.3554718305
 C         -1.7823195764        5.2161565609       -1.1903250618
 C         -2.5897929197        4.2617328431       -1.7821312186
 C         -2.3532182287        2.9203266499       -1.5485392949
 C         -1.3237853875        2.5398796499       -0.6991364532
 N         -1.0278970987        1.1813904906       -0.4816472976
 C         -1.9817759134        0.2552927152       -0.2217830720
 N         -3.2557209637        0.6507483100       -0.1859076871
 C         -4.1400135699       -0.2911592207        0.1116357582
 C         -5.5491021078        0.1017569311        0.1675623670
 C         -5.9108696411        1.4354943767       -0.0108646524
 C         -7.2416597630        1.8022495074        0.0419153390
 C         -8.2188432777        0.8461377780        0.2718413999
 C         -7.8629077326       -0.4815245871        0.4505986709
 C         -6.5339966712       -0.8553818707        0.3996470979
 N         -3.8342978489       -1.5629663469        0.3592747184
 C         -2.5381823282       -1.8619572934        0.3132659795
 C         -2.1277071637       -3.2427000431        0.5751062636
 C         -3.0788305128       -4.2155369616        0.8722350233
 C         -2.6837775320       -5.5184295172        1.1076238882
 C         -1.3418230461       -5.8605902221        1.0460294732
 C         -0.3914329241       -4.8951222915        0.7515706070
 C         -0.7789343840       -3.5899713918        0.5186214826
 N         -1.5806604741       -0.9907264943        0.0358052698
 C          0.3456647122        0.8593744560       -0.4073845320
 C          0.8241625720       -0.2872689023       -1.0158209136
 C          2.1710816130       -0.5863163481       -0.8924155219
 C          2.9878902938       -1.6736392563       -1.3503108210
 C          2.7164290711       -2.8401027688       -2.0527603893
 C          3.7543849806       -3.7142587763       -2.3059216231
 C          5.0443670946       -3.4441335613       -1.8540782687
 C          5.3371073730       -2.2925716781       -1.1482396758
 C          4.3033875877       -1.3982735204       -0.9103131216
 N          4.3119325140       -0.2046248223       -0.2143141966
 C          5.4219283524        0.3671113423        0.4216502894
 C          6.6153342450        0.5443949190       -0.2721473945
 C          7.7095152167        1.0978050532        0.3668055670
 C          7.6216895191        1.4884316404        1.6926782407
 C          6.4327521673        1.3189889332        2.3827608714
 C          5.3368899062        0.7564164828        1.7557706677
 C          3.0241617169        0.2941339768       -0.1934274688
 C          2.5498618496        1.4823065739        0.3423965808
 C          1.1972778736        1.7637750031        0.2505383713
 H          2.3040150651        3.6905826971        1.9425261061
 H          1.0907624752        4.9226906944        1.6848301668
 H          2.1153338087        4.4078128474        0.3342901936
 H         -0.8859898276        1.7877755125        1.9877495121
 H          0.5865465376        2.1667517152        2.8802393665
 H         -0.6460995937        3.4125603555        2.6288870153
 H         -0.1322062695        5.5973224869        0.0908325934
 H         -1.9565310460        6.2655044953       -1.3764989881
 H         -3.3957224634        4.5590683739       -2.4360446704
 H         -2.9623897102        2.1651775766       -2.0175442320
 H         -5.1357190479        2.1660124258       -0.1856217914
 H         -7.5214045100        2.8365901344       -0.0962443362
 H         -9.2588934600        1.1361326670        0.3119384156
 H         -8.6261777045       -1.2248755519        0.6294757167
 H         -6.2368276498       -1.8834634438        0.5354866559
 H         -4.1183930262       -3.9302488261        0.9136023245
 H         -3.4219407078       -6.2724872449        1.3392511558
 H         -1.0361544884       -6.8806710119        1.2288971510
 H          0.6546034406       -5.1616552745        0.7037081858
 H         -0.0514163915       -2.8253343373        0.2933121962
 H          0.1608534532       -0.9349453315       -1.5633780972
 H          1.7122899808       -3.0563064101       -2.3846117158
 H          3.5674665655       -4.6261092521       -2.8532528600
 H          5.8334183257       -4.1538922628       -2.0548750333
 H          6.3357910648       -2.1053160695       -0.7837273879
 H          6.6734452834        0.2587218863       -1.3116990628
 H          8.6335559389        1.2313322301       -0.1758530105
 H          8.4774022313        1.9222062357        2.1872528021
 H          6.3612690843        1.6169153335        3.4184198907
 H          4.4159878087        0.5983013283        2.2969424161
 H          3.2335035164        2.1635600198        0.8208432190
  78
       -120.46267385
 C          1.6142780751        3.9672291820        1.4776058627
 C          0.5876020102        2.9077769530        1.0766125069
 C         -0.1248304028        2.4242825797        2.3569690297
 C         -0.4623636382        3.4475577377        0.1224262711
 C         -0.6839884228        4.7963808652       -0.1098117864
 C         -1.6945593549        5.2162896181       -0.9581536001
 C         -2.4910256132        4.2877023272       -1.6032974712
 C         -2.2752100459        2.9372246698       -1.4027379795
 C         -1.2775370488        2.5199384035       -0.5329286127
 N         -1.0094457162        1.1517410732       -0.3308195622
 C         -1.9891482360        0.2381217253       -0.1275043797
 N         -3.2581575932        0.6451370375       -0.1924838677
 C         -4.1733882043       -0.2894099139        0.0225035255
 C         -5.5784409562        0.1085719348       -0.0812802215
 C         -6.5846369462       -0.8515237659       -0.0061259171
 C         -7.9088764098       -0.4757161986       -0.1234184167
 C         -8.2390555432        0.8569614580       -0.3140674347
 C         -7.2408347154        1.8162892293       -0.3857480113
 C         -5.9144762681        1.4474653790       -0.2709154596
 N         -3.9010569961       -1.5601384215        0.3087508496
 C         -2.6080651521       -1.8671018684        0.3865996243
 C         -2.2384941613       -3.2455807945        0.7129178212
 C         -0.8961040778       -3.6191116208        0.7449899875
 C         -0.5496522512       -4.9233007495        1.0402442429
 C         -1.5346238396       -5.8609295524        1.3102061855
 C         -2.8706339711       -5.4921662998        1.2842647556
 C         -3.2246225767       -4.1905022554        0.9858442045
 N         -1.6222212675       -1.0089477072        0.1748943713
 C          0.3585634748        0.8084227970       -0.2518574446
 C          0.8245061930       -0.3472231647       -0.8529251518
 C          2.1789470015       -0.6297025235       -0.7808742235
 C          2.9825733323       -1.7303796527       -1.2299587657
 C          2.6926455626       -2.9144646769       -1.8945262071
 C          3.7313388960       -3.7713567095       -2.1986775045
 C          5.0450965573       -3.4515963827       -1.8624153200
 C          5.3568632965       -2.2814733925       -1.1964086084
 C          4.3145244569       -1.4285477208       -0.8629018864
 N          4.3455381509       -0.2058814483       -0.2201192840
 C          5.4915384656        0.4384179060        0.2646852058
 C          5.7400567636        1.7666199059       -0.0707662662
 C          6.8711111579        2.4003643873        0.4088588494
 C          7.7669296432        1.7166560703        1.2141978866
 C          7.5235597646        0.3940569572        1.5454598048
 C          6.3889733359       -0.2447094609        1.0804045715
 C          3.0560860872        0.2856846341       -0.1614579577
 C          2.5814217357        1.4434019044        0.4373072717
 C          1.2225683148        1.7045276443        0.4029588025
 H          2.3317902680        3.5492211649        2.1790404762
 H          1.1200984837        4.7948119613        1.9796927995
 H          2.1458089660        4.3458653281        0.6074667691
 H         -0.8665070628        1.6619225650        2.1346650705
 H          0.6022979466        2.0023064719        3.0477376195
 H         -0.6267602782        3.2600887774        2.8401334875
 H         -0.0736618720        5.5403870732        0.3757960535
 H         -1.8550572798        6.2725253554       -1.1155903069
 H         -3.2733583304        4.6122238139       -2.2727753078
 H         -2.8771936948        2.2042182337       -1.9135874741
 H         -6.3072257148       -1.8838966046        0.1389625225
 H         -8.6884698111       -1.2215561512       -0.0677920285
 H         -9.2753959500        1.1484154131       -0.4064327945
 H         -7.5005714596        2.8546174489       -0.5329247763
 H         -5.1238382463        2.1804061084       -0.3228356994
 H         -0.1416306207       -2.8756485294        0.5377479353
 H          0.4914995152       -5.2114845788        1.0603709477
 H         -1.2606987581       -6.8799813992        1.5422347431
 H         -3.6360833413       -6.2242350976        1.4972843907
 H         -4.2587993964       -3.8844074830        0.9589229057
 H          0.1476477464       -1.0149398305       -1.3580444883
 H          1.6755086903       -3.1531464455       -2.1659101052
 H          3.5293298697       -4.6996078934       -2.7120166524
 H          5.8392224013       -4.1330380057       -2.1301061177
 H          6.3803958602       -2.0376814386       -0.9548447595
 H          5.0516911934        2.2885436154       -0.7185089733
 H          7.0589290577        3.4304586155        0.1442163458
 H          8.6524139475        2.2127568310        1.5815263837
 H          8.2173436174       -0.1417255606        2.1762188737
 H          6.1851347928       -1.2689556835        1.3542402347
 H          3.2670849852        2.1080810618        0.9356336168
  78
       -120.46254939
 C          1.6220139630        3.9412142903        1.5305340134
 C          0.5938219759        2.8879809868        1.1171564072
 C         -0.1171724280        2.3887371229        2.3923981558
 C         -0.4562668445        3.4403727489        0.1703723238
 C         -0.6755080285        4.7921726346       -0.0458749303
 C         -1.6844891178        5.2237812626       -0.8901947640
 C         -2.4810066954        4.3041368681       -1.5478784671
 C         -2.2678072534        2.9509579843       -1.3630328073
 C         -1.2726519870        2.5216892801       -0.4961855826
 N         -1.0090403425        1.1508036404       -0.3058415273
 C         -1.9912561276        0.2378328527       -0.1118852842
 N         -3.2597942248        0.6425596140       -0.1969909379
 C         -4.1765246662       -0.2939788894        0.0023173671
 C         -5.5800729106        0.0992166382       -0.1347174329
 C         -6.5840820694       -0.8651323823       -0.0913148672
 C         -7.9060803865       -0.4940958635       -0.2440587319
 C         -8.2362095172        0.8381369804       -0.4379496646
 C         -7.2403532864        1.8017385103       -0.4772818490
 C         -5.9162284114        1.4376226595       -0.3273504575
 N         -3.9065510352       -1.5624165947        0.3006643984
 C         -2.6145212210       -1.8651611562        0.4060736557
 C         -2.2473086567       -3.2374774538        0.7596584408
 C         -0.9043300805       -3.6028022636        0.8335380599
 C         -0.5590035330       -4.8992553125        1.1622810707
 C         -1.5459095889       -5.8375693233        1.4223736668
 C         -2.8827192294       -5.4775274359        1.3520770644
 C         -3.2355091052       -4.1833918803        1.0210655812
 N         -1.6268710955       -1.0070908013        0.2021618355
 C          0.3578989852        0.8025741094       -0.2308159917
 C          0.8197887813       -0.3492523977       -0.8424308387
 C          2.1752809212       -0.6301301443       -0.7845457270
 C          2.9776698893       -1.7236915038       -1.2529756229
 C          2.6847107121       -2.9029230468       -1.9247927715
 C          3.7233678551       -3.7517944039       -2.2507001129
 C          5.0400275359       -3.4286753015       -1.9292356903
 C          5.3549289578       -2.2636889150       -1.2558140558
 C          4.3128872843       -1.4195046531       -0.8999466373
 N          4.3469050653       -0.2030012579       -0.2459632780
 C          5.4958204131        0.4398685001        0.2338636976
 C          5.7373144895        1.7720944727       -0.0905310952
 C          6.8708393998        2.4043760432        0.3852688922
 C          7.7755877412        1.7154058033        1.1759913172
 C          7.5390379018        0.3888390590        1.4962489495
 C          6.4024938791       -0.2487996961        1.0345265675
 C          3.0564769176        0.2827841217       -0.1670740919
 C          2.5852230919        1.4333861673        0.4477226786
 C          1.2258335275        1.6926447764        0.4270187601
 H          2.3406501025        3.5125461591        2.2244107375
 H          1.1298622400        4.7623769956        2.0451459057
 H          2.1519943880        4.3312238440        0.6645295860
 H         -0.8585864387        1.6284521055        2.1623639219
 H          0.6107614515        1.9590815832        3.0775936040
 H         -0.6191008879        3.2183415070        2.8861825074
 H         -0.0643205753        5.5291925376        0.4492395798
 H         -1.8437106242        6.2820618057       -1.0345117012
 H         -3.2616350575        4.6378658661       -2.2148325869
 H         -2.8700848722        2.2250945543       -1.8835269722
 H         -6.3066904954       -1.8970261984        0.0570900044
 H         -8.6838125808       -1.2431514936       -0.2133319417
 H         -9.2706663375        1.1259075154       -0.5580559103
 H         -7.5001652477        2.8398159714       -0.6261646474
 H         -5.1276088636        2.1740350348       -0.3537619327
 H         -0.1488092201       -2.8585539778        0.6329154923
 H          0.4826810480       -5.1807837330        1.2168999651
 H         -1.2728770259       -6.8504035834        1.6813331732
 H         -3.6496855549       -6.2102018951        1.5570898494
 H         -4.2701050580       -3.8834846776        0.9619873902
 H          0.1394506224       -1.0146056049       -1.3461669916
 H          1.6652313049       -3.1440938628       -2.1848448089
 H          3.5190688958       -4.6758285773       -2.7706460195
 H          5.8337613885       -4.1035493227       -2.2141208766
 H          6.3803157977       -2.0168686553       -1.0254306544
 H          5.0421822723        2.2980302949       -0.7277085119
 H          7.0537568089        3.4373542189        0.1286753730
 H          8.6626326288        2.2106130390        1.5407487827
 H          8.2397060727       -0.1509398925        2.1159146583
 H          6.2034140938       -1.2760429573        1.3005466577
 H          3.2742719380        2.0946232958        0.9459815062
