  78
       -120.46284583
 C          1.5742991679        4.0174932219        1.3354825387
 C          0.5608275841        2.9361676190        0.9596527275
 C         -0.1660469337        2.4944417233        2.2470848655
 C         -0.4805794662        3.4339202865       -0.0256908009
 C         -0.7083874188        4.7710655534       -0.3132392770
 C         -1.7140084164        5.1498194332       -1.1864240028
 C         -2.5009745616        4.1912025695       -1.7990118161
 C         -2.2777547154        2.8514852328       -1.5433653989
 C         -1.2826337845        2.4760541225       -0.6517358038
 N         -1.0031655107        1.1175633726       -0.4050336110
 C         -1.9828972002        0.2104720725       -0.1751372909
 N         -3.2460204381        0.6418635587       -0.1725644955
 C         -4.1673788978       -0.2759549913        0.0813017482
 C         -5.5646974181        0.1603702402        0.0950677635
 C         -6.5861369367       -0.7640111819        0.3000073773
 C         -7.9036228082       -0.3481711174        0.3064540619
 C         -8.2117643335        0.9888870070        0.1095280934
 C         -7.1979681498        1.9127705102       -0.0925285112
 C         -5.8783913735        1.5040057151       -0.1005050056
 N         -3.9071189356       -1.5605055689        0.3150883272
 C         -2.6192057401       -1.8953972262        0.3114929206
 C         -2.2623406652       -3.2939783604        0.5573073801
 C         -0.9222976742       -3.6734513960        0.6109178786
 C         -0.5874064522       -4.9967251407        0.8227880252
 C         -1.5821335488       -5.9487631026        0.9846765301
 C         -2.9160680454       -5.5747881362        0.9361059005
 C         -3.2582088151       -4.2533274522        0.7232167849
 N         -1.6262335134       -1.0485665541        0.0838097175
 C          0.3673219920        0.7898980692       -0.3040744763
 C          0.8533600883       -0.3789158295       -0.8622043174
 C          2.2086961986       -0.6479142616       -0.7565941363
 C          3.0298687308       -1.7547405981       -1.1565236321
 C          2.7638178298       -2.9594771778       -1.7934016184
 C          3.8155358575       -3.8162252363       -2.0498094095
 C          5.1191605161       -3.4770518449       -1.6934234542
 C          5.4071895824       -2.2863805237       -1.0537912900
 C          4.3512704105       -1.4326570162       -0.7687204575
 N          4.3597997619       -0.1918049681       -0.1616743045
 C          5.4873908244        0.4703610561        0.3422280448
 C          5.7412501868        1.7906238719       -0.0195170795
 C          6.8511766464        2.4435008409        0.4833322434
 C          7.7205327070        1.7867007395        1.3385746163
 C          7.4723328655        0.4715944787        1.6954842870
 C          6.3588303190       -0.1861597972        1.2065659892
 C          3.0661649726        0.2915327605       -0.1460301084
 C          2.5719872077        1.4639302733        0.4062601785
 C          1.2126516120        1.7141411256        0.3370993392
 H          2.2827494011        3.6327006124        2.0645609174
 H          1.0668968841        4.8611908229        1.7959921313
 H          2.1178116568        4.3647434219        0.4597668441
 H         -0.9026894619        1.7221720935        2.0423905528
 H          0.5534413681        2.1000587923        2.9619504883
 H         -0.6774850553        3.3445406013        2.6940049145
 H         -0.1063688994        5.5378335379        0.1466700787
 H         -1.8793240914        6.1977205038       -1.3881362358
 H         -3.2804432686        4.4837691595       -2.4863401296
 H         -2.8714628223        2.0946127312       -2.0291635676
 H         -6.3261845397       -1.8000529714        0.4509707568
 H         -8.6953289148       -1.0659329554        0.4650168750
 H         -9.2429286538        1.3115672244        0.1144981571
 H         -7.4402365710        2.9546941663       -0.2439318761
 H         -5.0753316121        2.2088003765       -0.2536635411
 H         -0.1602017750       -2.9192860019        0.4876728223
 H          0.4522202725       -5.2884879376        0.8616562252
 H         -1.3174931909       -6.9831780882        1.1494245170
 H         -3.6892595404       -6.3184966885        1.0631682676
 H         -4.2905461082       -3.9432663344        0.6786671385
 H          0.1904317557       -1.0673113812       -1.3575063653
 H          1.7548334652       -3.2141453699       -2.0803031435
 H          3.6322216360       -4.7595408634       -2.5420813555
 H          5.9238849412       -4.1595482687       -1.9235646676
 H          6.4229238508       -2.0273926252       -0.7955766880
 H          5.0742704359        2.2909707353       -0.7055467378
 H          7.0431850021        3.4675227602        0.1985978389
 H          8.5887946157        2.2982143596        1.7255620652
 H          8.1451778517       -0.0429128724        2.3654774900
 H          6.1497585533       -1.2039517807        1.5004198545
 H          3.2432652247        2.1484695014        0.8972345046
