46
 energy: -77.555455007522 gnorm: 0.000090308729 xtb: 6.7.1 (edcfbbe)
O           -1.18943437301928       -0.55506317738664       -2.28569671815386
C           -1.29651367651165        0.26648434310162       -1.22782370941913
C           -2.04825105793365        0.07851428110032       -0.06069332650472
C           -2.99705287661912       -0.92824802984947        0.21976611848145
C           -3.62561581317668       -0.93802560181496        1.44054575519203
C           -3.35389286594594        0.02850333409968        2.41305212414370
C           -2.43681151065766        1.04022955495024        2.15109665474847
C           -1.81068591360564        1.05761940875819        0.93235576937068
S           -0.59670265753436        2.18417268266130        0.32458285709904
O           -1.07337251326744        3.51671370906071        0.09811295587849
O            0.67781947579200        2.06817559233939        0.97347979474513
N           -0.50699013269621        1.39255536140010       -1.18200361912926
C            0.22408340842170        1.94708785076321       -2.28605237766402
C            1.73233858646765        1.73935052596118       -2.12934318698757
C            2.13551095753113        0.26250769864231       -2.23748726014705
N            1.73963113703888       -0.50898229716990       -1.09130149282271
C            2.34852413063856       -0.42563793576189        0.14292906831264
C            3.43440555564863        0.33587390876107        0.54911346223215
C            3.84025947241003        0.22274097451492        1.86356590796801
C            3.19066392899631       -0.62829436836054        2.75540580971597
C            2.11937082553974       -1.39928649502533        2.35295060669541
C            1.69321749386730       -1.30271004187673        1.03552541496256
C            0.64950852605919       -1.94142627805735        0.28284383193997
C           -0.26517867940222       -2.94813431440869        0.60623162792421
C           -1.09162745940959       -3.43846620044672       -0.41599588461124
C           -1.08180604002792       -2.92187847528965       -1.67568974789039
C           -0.27186377934247       -1.73223124662659       -2.06082288446886
C            0.71767958951991       -1.41045683145147       -1.00875681875000
H           -3.21983727210277       -1.66671607455009       -0.53305456257698
H           -4.35164834888772       -1.70793479333534        1.65624632670236
H           -3.86076066079853       -0.00617988216947        3.36397051726271
H           -2.21601332884920        1.80120418355820        2.88310746803664
H            0.00392803136438        3.01982836365877       -2.30521220121639
H           -0.14194088419096        1.48384248600952       -3.20772729564588
H            2.03053925053178        2.12618172476568       -1.15394360573726
H            2.24665680283527        2.30341663126734       -2.90891635655433
H            3.22539538955230        0.19539345403892       -2.33168970451294
H            1.68434304080025       -0.17844621655913       -3.13024000141132
H            3.94735559479677        1.00186116692945       -0.12744038139092
H            4.67675990986340        0.81068137245518        2.21063027641840
H            3.53472399724889       -0.68094061289740        3.77767324387679
H            1.61809948766888       -2.06002188283700        3.04397221806720
H           -0.31070082267896       -3.35543917472835        1.60185019045468
H           -1.74970901142800       -4.26707738511731       -0.19673922590820
H           -1.73293680980523       -3.31471639420448       -2.44043047080991
H            0.16800871254246       -1.85934086062793       -3.05936682658605
