  46
        -77.55014774
 O         -1.1929161947       -0.5514248008       -2.2837450880
 C         -1.2967785264        0.2673063377       -1.2269054829
 C         -2.0469170979        0.0799179660       -0.0604723699
 C         -2.9945304923       -0.9286162457        0.2222490865
 C         -3.6241808965       -0.9364438833        1.4418063375
 C         -3.3557259242        0.0334266036        2.4128612757
 C         -2.4399973870        1.0458728304        2.1500333106
 C         -1.8118581815        1.0619623069        0.9323003669
 S         -0.5981122161        2.1864693053        0.3248296222
 O         -1.0697850778        3.5208777320        0.0983549872
 O          0.6790340456        2.0669212812        0.9690474161
 N         -0.5118444530        1.3952024645       -1.1836778506
 C          0.2224885892        1.9472211310       -2.2862425689
 C          1.7304732436        1.7387117375       -2.1262042942
 C          2.1337210299        0.2619692509       -2.2359605876
 N          1.7380258387       -0.5107480022       -1.0907633425
 C          2.3471583321       -0.4268942406        0.1438704525
 C          3.4324203015        0.3357597385        0.5490789619
 C          3.8394622056        0.2226733493        1.8635209606
 C          3.1916800655       -0.6294464643        2.7551070498
 C          2.1202957768       -1.4015971080        2.3529086941
 C          1.6929289169       -1.3045216676        1.0365489161
 C          0.6493382138       -1.9455831453        0.2835820559
 C         -0.2621680203       -2.9504502055        0.6050647344
 C         -1.0885327439       -3.4407570068       -0.4184638996
 C         -1.0776099632       -2.9246757486       -1.6779592851
 C         -0.2694106931       -1.7369482771       -2.0610301937
 C          0.7179822134       -1.4130207192       -1.0104570397
 H         -3.2145549594       -1.6692420084       -0.5292766182
 H         -4.3483433392       -1.7076606050        1.6593332546
 H         -3.8641352446        0.0001240513        3.3629428946
 H         -2.2220144802        1.8089788097        2.8807072577
 H          0.0038996957        3.0202597429       -2.3065902701
 H         -0.1419866858        1.4835857635       -3.2084587302
 H          2.0262739492        2.1241949431       -1.1495359296
 H          2.2466383515        2.3037295562       -2.9038155389
 H          3.2236682738        0.1954173947       -2.3297620970
 H          1.6827950857       -0.1781493788       -3.1292101885
 H          3.9439202400        1.0023118363       -0.1280172944
 H          4.6757463687        0.8112272650        2.2100539625
 H          3.5371085276       -0.6831758110        3.7767982660
 H          1.6209214795       -2.0635248165        3.0440116804
 H         -0.3085132499       -3.3589704950        1.6001175837
 H         -1.7448596096       -4.2709896720       -0.2002123200
 H         -1.7271837086       -3.3190331764       -2.4432074113
 H          0.1655226453       -1.8549261717       -3.0625777212
