46
 energy: -77.639499667197 gnorm: 0.000042229575 xtb: 6.7.1 (edcfbbe)
O           -1.23890718423487        0.13473811810616       -2.43193693289519
C           -0.23633172202431        0.09525216609298       -1.75903343050120
C            0.51600062869532        1.26816976181067       -1.24102811522439
C            0.07088924673430        2.58095211406070       -1.26560569478238
C            0.86074656135176        3.55706131930187       -0.67734779725372
C            2.07098629756883        3.23158443026532       -0.08179748635999
C            2.52992528775328        1.91907729367766       -0.07597808870562
C            1.73550956818581        0.96115057688976       -0.65987397243644
S            2.01169672402726       -0.77791053145390       -0.89601287195373
O            2.81810948025273       -1.01545330754692       -2.05411796427549
O            2.35079706499872       -1.50621675052362        0.28365274926308
N            0.38238978736866       -1.04508448343346       -1.32795427474696
C           -0.09592176465585       -2.37312718104557       -1.64375175714800
C           -0.16438227901767       -3.24529478878098       -0.38810797078850
C           -1.33051926984369       -2.89229147150490        0.54979057284255
N           -1.34939218649062       -1.50978853960422        0.93897272209263
C           -0.40916927744407       -0.89641082888392        1.73658079880648
C            0.61151288270197       -1.45304034815982        2.49390439048570
C            1.42301313145898       -0.59743776929836        3.21121664337771
C            1.23060392872965        0.78240673137063        3.18724122018822
C            0.19914698150238        1.34174970451280        2.46162687433934
C           -0.63473761728984        0.49987996090909        1.73743039265666
C           -1.78190788057596        0.72555214774006        0.90735992392470
C           -2.48500481250795        1.86734131236210        0.54463805926983
C           -3.57527935186725        1.73494176468628       -0.28915806522497
C           -3.97054626910905        0.48243263569082       -0.75394305935471
C           -3.29182367498161       -0.66596766765080       -0.40135131298496
C           -2.18633950273973       -0.54277348424315        0.42914397129183
H           -0.87799106797662        2.81126037690190       -1.72366605127805
H            0.52837294436509        4.58433341901392       -0.67900780684482
H            2.66750144510485        4.00466109744382        0.37813259752664
H            3.47201222966732        1.65095649899746        0.37408978139042
H            0.59499192866725       -2.82377546340242       -2.36510522967671
H           -1.07784680207639       -2.25613208545801       -2.11319109565996
H            0.77989302647225       -3.13966108778956        0.14569817441491
H           -0.27604408402234       -4.28707298430815       -0.69304226718280
H           -1.25934364359261       -3.51651737926210        1.44796099854935
H           -2.27920352074818       -3.11432863804163        0.05627634197576
H            0.77901044206075       -2.51764699273731        2.52305295597169
H            2.22835518414997       -1.00724690921149        3.80161833668130
H            1.89276898606926        1.41852991613594        3.75624717357595
H            0.03641365759795        2.40963663793034        2.45476226746309
H           -2.17772997416225        2.83505122368521        0.91356520126629
H           -4.13425750756199        2.60927564895432       -0.58838804892864
H           -4.82680875896212        0.40896053527248       -1.40731416322197
H           -3.61767998820227       -1.62384890797931       -0.77812994211610
