  46
        -77.63948756
 O         -1.2311253497        0.1146874848       -2.4387774778
 C         -0.2279178842        0.0803632934       -1.7664852726
 C          0.5160370767        1.2568902076       -1.2443945379
 C          0.0627114299        2.5668343359       -1.2681518022
 C          0.8421766639        3.5461476538       -0.6714035968
 C          2.0503227341        3.2265974156       -0.0684812885
 C          2.5180417733        1.9171656845       -0.0641725845
 C          1.7337202125        0.9559366098       -0.6561829210
 S          2.0231484813       -0.7802867201       -0.8969537928
 O          2.8365963871       -1.0064938752       -2.0523352989
 O          2.3609889178       -1.5124674874        0.2806155549
 N          0.3977651991       -1.0566055327       -1.3379293087
 C         -0.0769512386       -2.3874763488       -1.6460552376
 C         -0.1595942034       -3.2472780005       -0.3827382364
 C         -1.3344802793       -2.8840297924        0.5399254184
 N         -1.3484907210       -1.5011252941        0.9285755946
 C         -0.4074300737       -0.8912112987        1.7278688588
 C          0.6134869652       -1.4509147338        2.4826877594
 C          1.4260558291       -0.5982048115        3.2022653207
 C          1.2337639435        0.7817431983        3.1841348013
 C          0.2014420996        1.3439956536        2.4620022364
 C         -0.6326269213        0.5051611508        1.7345276431
 C         -1.7812034559        0.7342993215        0.9074744997
 C         -2.4840895327        1.8779399632        0.5503257247
 C         -3.5767280298        1.7493328463       -0.2809784495
 C         -3.9743458435        0.4986544953       -0.7486374788
 C         -3.2950511290       -0.6514011288       -0.4025524841
 C         -2.1868533645       -0.5319966103        0.4249172392
 H         -0.8849081613        2.7923678944       -1.7311849163
 H          0.5026828159        4.5710844476       -0.6714560376
 H          2.6381751370        4.0019008813        0.3987928582
 H          3.4587316257        1.6536894378        0.3915346717
 H          0.6220813263       -2.8449954538       -2.3550685486
 H         -1.0536961981       -2.2752631296       -2.1274007583
 H          0.7797309014       -3.1382773276        0.1589770624
 H         -0.2702432888       -4.2917390616       -0.6787555137
 H         -1.2796957672       -3.5087019202        1.4391575803
 H         -2.2782366921       -3.0990058045        0.0340508220
 H          0.7799718391       -2.5157232694        2.5091715079
 H          2.2318112038       -1.0105957500        3.7902833976
 H          1.8963987813        1.4154707059        3.7552461329
 H          0.0381194271        2.4117931083        2.4602816830
 H         -2.1749288172        2.8441009251        0.9216896159
 H         -4.1357974305        2.6251635846       -0.5756386563
 H         -4.8331378842        0.4279244624       -1.3990087377
 H         -3.6229830885       -1.6075977917       -0.7816824607
