58
 energy: -100.575559841291 gnorm: 0.000070197908 xtb: 6.7.1 (edcfbbe)
O            6.44297861464820       -0.67313761506013       -2.71070798013504
S            6.09362775543324       -1.19647665298318       -1.41575808201945
O            6.41595575112664       -2.56467533067655       -1.14910711418155
C            6.86596726191812       -0.14763998095141       -0.17707505020112
C            7.97606085382842        0.60538896290415       -0.51531889101844
C            8.57517081570989        1.40645715882318        0.44482720706833
C            8.05543112365752        1.46013697592713        1.72985225392699
C            6.93521238677192        0.71248783773224        2.05974802685545
C            6.34952998998231       -0.09496019192548        1.10113939540298
S            4.90608656379456       -1.07683872071643        1.53011452481325
O            4.27136306612275       -0.44868829019393        2.65977199398853
O            5.28458010404011       -2.44947907834257        1.66916862175438
C            3.82141872345971       -0.88242155645199        0.11337527246967
C            2.47293284007110       -0.68157975191249        0.32005074748908
C            1.60892153502529       -0.52614862795751       -0.76769155213236
C            0.17130889108020       -0.33909846310415       -0.55793977204034
C           -0.56899301236082        0.52567714882570       -1.36516971934281
C           -1.92225359546872        0.69430992020972       -1.17206175070440
C           -2.59061671348607       -0.01173170909272       -0.16770128772679
N           -3.95898449605170        0.14307621886561        0.01941770904707
C           -4.74427038993648       -0.94221559383294        0.43713743421134
C           -4.49529857207072       -2.22382037199966       -0.05163875606340
C           -5.27583562727194       -3.28723819378529        0.35861089137580
C           -6.31746739387648       -3.08988876749094        1.25022508638767
C           -6.57191566382806       -1.81700046481941        1.73371644633868
C           -5.79148179525700       -0.74847422124933        1.33616138563928
C           -4.57072759033209        1.38358515355367       -0.21428449498542
C           -3.93256779767397        2.56631575661355        0.15657922247900
C           -4.54208323443043        3.78497303597810       -0.07090802065944
C           -5.79426519850545        3.84389408247975       -0.66048487012557
C           -6.43416232629742        2.67079019607001       -1.02547543676330
C           -5.82949803912544        1.44750375536592       -0.80940383831493
C           -1.85183029940294       -0.87894952491023        0.64263756875580
C           -0.49644326843737       -1.03161301310477        0.45348340485934
C            2.15034206553314       -0.55904507139168       -2.05627964826797
C            3.50523693602633       -0.75124201107357       -2.25468960528871
C            4.34166505083688       -0.92243377491957       -1.16478416819660
H            8.34447385925341        0.55086710851033       -1.52766113217627
H            9.44603452169983        1.99045039955789        0.18900194246798
H            8.52117200271580        2.08628546480373        2.47545948312218
H            6.49661689255867        0.74159029460642        3.04477797125805
H            2.11555100032682       -0.62482564647034        1.33633183482151
H           -0.07303232489455        1.08827782028284       -2.14190532382297
H           -2.47829721235798        1.36895587448778       -1.80590941305510
H           -3.69107964101020       -2.37744856805682       -0.75629881000840
H           -5.07442042781263       -4.27511020418385       -0.02836639532131
H           -6.92744817389072       -3.92259395332602        1.56531820136959
H           -7.37961587166036       -1.65501820820703        2.43198349356217
H           -5.98614651060960        0.24233956686820        1.71968444303825
H           -2.96150425499904        2.52103919382435        0.62766480345574
H           -4.03925884931624        4.69431995374786        0.22342659705216
H           -6.26883556776412        4.79776184565515       -0.83300145149234
H           -7.40888365532643        2.70792942159681       -1.48890930731646
H           -6.32636327465420        0.53376657103716       -1.10076288076253
H           -2.35249948957427       -1.42665179093834        1.42693863393432
H            0.05290029622855       -1.71387724147743        1.08406595020276
H            1.49716464205742       -0.45330172749810       -2.90906419639296
H            3.93838172377373       -0.77455640024456       -3.24231159864548
