58
 energy: -100.489683182252 gnorm: 0.000078871700 xtb: 6.7.1 (edcfbbe)
O            5.57489541573682       -1.58351336309281       -1.62343874163973
S            5.13162792147383       -1.55165628454070       -0.26023752322949
O            5.46844094046848       -2.68622685900666        0.56487013343833
C            5.79910889987336       -0.08383664196348        0.53271808936169
C            6.81657704535408       -0.20369682829201        1.46350605010820
C            7.32664981525677        0.93304365302854        2.06925859848939
C            6.80841300520002        2.18226489932027        1.75523751890622
C            5.77758657504251        2.29589945556401        0.83576027313956
C            5.28311590959659        1.15916227000344        0.22179391162114
S            3.93363037910516        1.29644453559657       -0.95597675297246
O            4.42805316323219        1.11173684104235       -2.28744340087838
O            3.24800941879212        2.53837322579573       -0.68634325471359
C            2.84334984253049       -0.04064206916631       -0.48710597512935
C            1.50484576181548        0.19578024888034       -0.41261171099349
C            0.58973408442597       -0.82253687072018       -0.00049276434930
C           -0.80126392329163       -0.59883309051982        0.03457000162208
C           -1.40770696875717        0.53247217154160       -0.61548526276487
C           -2.74664269060589        0.74676217141478       -0.59311622851939
C           -3.62315610401317       -0.15072251893348        0.07495452806178
N           -4.98622933095963        0.06170685897130        0.08890548995908
C           -5.86393536901149       -1.02385313452175        0.09429274855567
C           -5.55947929437723       -2.18012618702367       -0.63125831090448
C           -6.42394917318576       -3.25512403542239       -0.61200537729943
C           -7.59827181304179       -3.19928835963801        0.12470059680741
C           -7.90494350605743       -2.05366054284879        0.84519756357548
C           -7.04918295966865       -0.97172787537979        0.83480210240256
C           -5.49349423241457        1.36210272544412        0.09245182762718
C           -4.83487352067498        2.37397540049999        0.79850159128062
C           -5.33156694694727        3.66102391238908        0.78532603834512
C           -6.48482274234943        3.96177650640736        0.07522696878641
C           -7.14299740119467        2.96050052417153       -0.62469186428828
C           -6.65642131530039        1.66970143653490       -0.62092170639721
C           -3.04994629899018       -1.27511451096407        0.72610213527253
C           -1.70973848411632       -1.48602637437556        0.71125742966025
C            1.18089515322009       -2.07907443819031        0.37673965302328
C            2.52662399150172       -2.29422705528873        0.29990193966230
C            3.38774541246716       -1.28818231859794       -0.15747648457307
H            7.18517053018240       -1.19108077336387        1.69356567722679
H            8.12745964516258        0.84588692966219        2.78794386395832
H            7.20577373698179        3.06682607004922        2.22946285299610
H            5.33909280619211        3.24807902586269        0.58134826411256
H            1.17097711815608        1.19618659621018       -0.63331363817103
H           -0.78491830860450        1.20463335281289       -1.18103390270887
H           -3.17333802304041        1.58027954583539       -1.13202151538500
H           -4.65546691459033       -2.21174066388601       -1.22081647170207
H           -6.18522676700878       -4.14010437867266       -1.18190466207397
H           -8.27087706658635       -4.04263550809884        0.13683769877944
H           -8.81398828846324       -2.00782706973091        1.42548841137422
H           -7.27728454766325       -0.08695110830697        1.41053466787462
H           -3.94947773165487        2.13228283349615        1.36721312649074
H           -4.82031116073141        4.43415665649315        1.33827208964857
H           -6.86864902127852        4.96991548784435        0.06700244378662
H           -8.03659692990931        3.19078316873173       -1.18468948008217
H           -7.15604220870221        0.89431571973612       -1.18256308300210
H           -3.69930109428482       -1.93793733005117        1.28000917381037
H           -1.31295311374648       -2.32003739250260        1.26544583442216
H            0.54428905785914       -2.88790016410816        0.69517591933079
H            2.96731727238168       -3.23912097027775        0.57675799907743
