  58
       -100.57588297
 O          5.4389887612       -2.7311664403       -0.2667294085
 S          5.1346563841       -1.5102705415        0.4327693189
 O          5.5663815629       -1.4054276766        1.7926643272
 C          5.8251708103       -0.1503086977       -0.5192140092
 C          6.8727693934       -0.3895642817       -1.3905094028
 C          7.4119365980        0.6628805807       -2.1145077126
 C          6.8952139181        1.9424254680       -1.9730146916
 C          5.8367709361        2.1740033738       -1.1077714016
 C          5.3108668154        1.1221762144       -0.3791889954
 S          3.9437956856        1.4206569166        0.7493393062
 O          3.2665233950        2.6121642526        0.3062894674
 O          4.4208970504        1.3980907814        2.0978498816
 C          2.8476561099        0.0292321211        0.4631318274
 C          1.4893108765        0.2495357872        0.3786387955
 C          0.6131881373       -0.8191602883        0.1671208696
 C         -0.8311486589       -0.5950767681        0.0914773567
 C         -1.3495065257        0.5564320663       -0.5042043985
 C         -2.7078055313        0.7683607573       -0.5782916670
 C         -3.6048860780       -0.1594891335       -0.0396823916
 N         -4.9745073952        0.0571421332       -0.1006304188
 C         -5.8615506296       -1.0264640028       -0.1958989881
 C         -5.5598782500       -2.1174762093       -1.0093009974
 C         -6.4374201955       -3.1808976394       -1.0977282823
 C         -7.6268877863       -3.1695505025       -0.3878232985
 C         -7.9342156290       -2.0833722310        0.4149749645
 C         -7.0597487146       -1.0185066661        0.5158700222
 C         -5.4938741175        1.3600558697       -0.0455215721
 C         -4.9312335272        2.3118646879        0.8031776357
 C         -5.4532734459        3.5898687959        0.8556829117
 C         -6.5439526885        3.9346459774        0.0743314301
 C         -7.1097538212        2.9898388670       -0.7657133303
 C         -6.5898805098        1.7114175401       -0.8313371284
 C         -3.0886342034       -1.3101400834        0.5642749397
 C         -1.7298583732       -1.5240268925        0.6193000865
 C          1.1531511321       -2.1018443905        0.0286015036
 C          2.5176344062       -2.3124840932        0.1023976029
 C          3.3671637324       -1.2427346598        0.3279755676
 H          7.2404780983       -1.3990698246       -1.4864853480
 H          8.2338159254        0.4835162357       -2.7907022561
 H          7.3146799831        2.7603973389       -2.5385411605
 H          5.4009527353        3.1529576306       -0.9844475507
 H          1.1295811824        1.2596662457        0.4955052111
 H         -0.6777076276        1.2765028095       -0.9460920409
 H         -3.0896586835        1.6544007308       -1.0629826413
 H         -4.6385160163       -2.1214181893       -1.5724900890
 H         -6.1935251661       -4.0206250880       -1.7317032430
 H         -8.3107067353       -4.0013443164       -0.4608980764
 H         -8.8587925802       -2.0674077144        0.9733709222
 H         -7.2973394423       -0.1744110294        1.1471156940
 H         -4.0888259675        2.0408418730        1.4224500910
 H         -5.0104057215        4.3180946828        1.5185455397
 H         -6.9513430170        4.9329600768        0.1210616722
 H         -7.9583692937        3.2513861164       -1.3801658603
 H         -7.0277480944        0.9768099097       -1.4910460859
 H         -3.7658787487       -2.0281842790        1.0019089327
 H         -1.3554417200       -2.4056916871        1.1170111523
 H          0.4958049502       -2.9367074854       -0.1605324350
 H          2.9494955952       -3.2932952786       -0.0202774112
