58
 energy: -100.575912384063 gnorm: 0.000037642347 xtb: 6.7.1 (edcfbbe)
O            5.44369227424098       -2.72764523412773       -0.25707548578421
S            5.13655786557791       -1.50195219346387        0.43308013332350
O            5.56644237059219       -1.38618213983673        1.79294891650483
C            5.82796852974804       -0.14763059672483       -0.52593098511055
C            6.88267668541454       -0.39026861207271       -1.38770208902927
C            7.42562677427112        0.65871773271700       -2.11391581050182
C            6.90517684909820        1.93804933618208       -1.98462996597502
C            5.83977051182601        2.17291259757570       -1.12890165293150
C            5.31037159080028        1.12471886723961       -0.39743352450712
S            3.94042632336664        1.43122086390256        0.72545398678178
O            3.25921526087550        2.61470603620231        0.26753994095875
O            4.41820881078284        1.42798346124498        2.07387304582438
C            2.84724866500111        0.03363669971539        0.45735044400063
C            1.48796855025257        0.25045533174338        0.37934226360633
C            0.61239107904141       -0.82090151073616        0.17834778114308
C           -0.83246413904166       -0.59878559001207        0.10682440890142
C           -1.35256258974055        0.55449923459401       -0.48436557339239
C           -2.71089085073457        0.76575925127184       -0.55664391416817
C           -3.60721015018987       -0.16500531438902       -0.02161936362975
N           -4.97701261725115        0.05098896718523       -0.08271574653102
C           -5.86507429016242       -1.03007964664685       -0.19105598695024
C           -5.55776649479654       -2.12021474123179       -1.00371747898419
C           -6.43988945805432       -3.17824156677325       -1.10894908033315
C           -7.63988299246271       -3.16256081350238       -0.41707250346757
C           -7.95218199610340       -2.07803677948696        0.38614468090274
C           -7.07303143544755       -1.01888660903490        0.50421109633940
C           -5.49480962214634        1.35506314249176       -0.03257919106547
C           -4.93777934099181        2.30592443005601        0.82088217721134
C           -5.45628136313087        3.58568371526995        0.86663785223756
C           -6.53799319771112        3.93298198168784        0.07399665737941
C           -7.09881629602119        2.98881763705809       -0.77027501109448
C           -6.58216217178934        1.70878043485062       -0.82933277631365
C           -3.08961733885795       -1.31719385329303        0.57824772203275
C           -1.73045537549969       -1.52999728257878        0.63220317650577
C            1.15458127074183       -2.10322332621811        0.04410656702071
C            2.51979847334915       -2.31076651355888        0.11299716944434
C            3.36864446174079       -1.23805730812216        0.32747217966820
H            7.25339538779857       -1.39953602521061       -1.47415181641184
H            8.25370220608551        0.47695989238277       -2.78186565043148
H            7.32766596036536        2.75339029724280       -2.55176791752327
H            5.40146645116960        3.15189221713122       -1.01488421369075
H            1.12728446265247        1.26062130470252        0.49266985538631
H           -0.68200598898181        1.27679932425104       -0.92444820086133
H           -3.09351787152461        1.65340820950962       -1.03777182535049
H           -4.62800662730557       -2.12777365325256       -1.55368313063578
H           -6.19208984807067       -4.01644657393238       -1.74328586072731
H           -8.32779979242217       -3.98956036974576       -0.50450392091867
H           -8.88413498498173       -2.05921521537436        0.93136388189472
H           -7.31416470982685       -0.17684022062437        1.13623213590915
H           -4.10215007502004        2.03302339012465        1.44853966471372
H           -5.01762555707008        4.31355593449973        1.53283991226428
H           -6.94222073686771        4.93283098304638        0.11508199051137
H           -7.94037810870085        3.25217408962829       -1.39368149023395
H           -7.01550252592658        0.97494331221272       -1.49304577676618
H           -3.76599426997256       -2.03764912460292        1.01342860407697
H           -1.35556002080469       -2.41290687135638        1.12752970763994
H            0.49851307191926       -2.94081978551791       -0.13740863632591
H            2.95281752355639       -3.29162006155922       -0.00532213751499
