  29
  -47.2422632305000        1.00000000000000      !
 C          0.5948704254        3.5300544186       -0.0080884220
 C          1.7997347217        2.8557683526       -0.0015119127
 C          1.8417609238        1.4586057201        0.0027208626
 C          3.0788296305        0.7497929572        0.0093483980
 C          3.1127429809       -0.6017459938        0.0089137135
 C          1.9120473974       -1.3708606604        0.0023626906
 C          1.9412536225       -2.7684551474       -0.0023669740
 C          0.7724243698       -3.5017465973       -0.0085184875
 C         -0.4559574573       -2.8628461661       -0.0076903482
 C         -0.5275885216       -1.4722892571       -0.0025084530
 C         -1.7414513255       -0.7336964258        0.0004411954
 N         -3.0495393107       -1.1400079824        0.0054421831
 C         -3.8042043036       -0.0082168523        0.0075774361
 N         -3.0903307064        1.0780653476        0.0038521682
 C         -1.7898894071        0.6585875829       -0.0004059794
 C         -0.5966832189        1.4396546835       -0.0032637090
 C         -0.5996371425        2.8297455971       -0.0083846777
 C          0.6294323743        0.7251152459        0.0003649888
 C          0.6655231014       -0.6985412215        0.0004158089
 H          0.5836230085        4.6103394262       -0.0122870237
 H          2.7299822984        3.4060950835        0.0000634088
 H          3.9937360759        1.3254608652        0.0139750557
 H          4.0546318215       -1.1319152616        0.0126941784
 H          2.8970535902       -3.2723687395       -0.0019326281
 H          0.8130817036       -4.5812647159       -0.0132895336
 H         -1.3640115441       -3.4491000896       -0.0113535870
 H         -3.3860239561       -2.0885370097        0.0082312626
 H         -4.8762127227       -0.0270186600        0.0122820933
 H         -1.5493233183        3.3411750826       -0.0113030918
