  29
        -47.40294943
 C          0.5948704254        3.5300544186       -0.0080884220
 C          1.7997347217        2.8557683526       -0.0015119127
 C          1.8417609238        1.4586057201        0.0027208626
 C          3.0788296305        0.7497929572        0.0093483980
 C          3.1127429809       -0.6017459938        0.0089137135
 C          1.9120473974       -1.3708606604        0.0023626906
 C          1.9412536225       -2.7684551474       -0.0023669740
 C          0.7724243698       -3.5017465973       -0.0085184875
 C         -0.4559574573       -2.8628461661       -0.0076903482
 C         -0.5275885216       -1.4722892571       -0.0025084530
 C         -1.7414513255       -0.7336964258        0.0004411954
 N         -3.0495393107       -1.1400079824        0.0054421831
 C         -3.8042043036       -0.0082168523        0.0075774361
 N         -3.0903307064        1.0780653476        0.0038521682
 C         -1.7898894071        0.6585875829       -0.0004059794
 C         -0.5966832189        1.4396546835       -0.0032637090
 C         -0.5996371425        2.8297455971       -0.0083846777
 C          0.6294323743        0.7251152459        0.0003649888
 C          0.6655231014       -0.6985412215        0.0004158089
 H          0.5836230085        4.6103394262       -0.0122870237
 H          2.7299822984        3.4060950835        0.0000634088
 H          3.9937360759        1.3254608652        0.0139750557
 H          4.0546318215       -1.1319152616        0.0126941784
 H          2.8970535902       -3.2723687395       -0.0019326281
 H          0.8130817036       -4.5812647159       -0.0132895336
 H         -1.3640115441       -3.4491000896       -0.0113535870
 H         -3.3860239561       -2.0885370097        0.0082312626
 H         -4.8762127227       -0.0270186600        0.0122820933
 H         -1.5493233183        3.3411750826       -0.0113030918
  29
        -47.40286650
 C          0.5952507068        3.5298605685        0.0345588564
 C          1.7998764513        2.8556385085        0.0083949134
 C          1.8416089284        1.4585247895       -0.0108874862
 C          3.0784784911        0.7498235663       -0.0360890511
 C          3.1125027458       -0.6017598265       -0.0356001524
 C          1.9119753285       -1.3707990865       -0.0103849554
 C          1.9411989138       -2.7683538017        0.0094446778
 C          0.7725401503       -3.5014487190        0.0352347989
 C         -0.4559182824       -2.8626022821        0.0317678337
 C         -0.5276071591       -1.4722786698        0.0087423482
 C         -1.7414060188       -0.7335589391       -0.0014029427
 N         -3.0492943635       -1.1401507007       -0.0204538002
 C         -3.8041268231       -0.0083665680       -0.0302889530
 N         -3.0904466397        1.0779118136       -0.0175097602
 C         -1.7900384709        0.6586797542        0.0008233741
 C         -0.5968197433        1.4397548747        0.0108779840
 C         -0.5993845023        2.8296541514        0.0328790030
 C          0.6292823596        0.7251341464       -0.0031307686
 C          0.6654798464       -0.6985183600       -0.0035052622
 H          0.5840874677        4.6099983149        0.0545447059
 H          2.7302054575        3.4057933485        0.0041675374
 H          3.9933315953        1.3253595401       -0.0539970900
 H          4.0542669669       -1.1320070197       -0.0522669783
 H          2.8971152887       -3.2720646758        0.0080560619
 H          0.8135267224       -4.5807693205        0.0567581595
 H         -1.3638387623       -3.4488638153        0.0480921314
 H         -3.3853034469       -2.0887962523       -0.0320164916
 H         -4.8760615931       -0.0283816048       -0.0467520331
 H         -1.5488290174        3.3412582555        0.0472343140
