106
 energy: -158.551140998658 gnorm: 0.000043528910 xtb: 6.7.1 (edcfbbe)
C           -4.52586568594491       -0.63075828558017        4.80612624511190
C           -5.37340306135975       -1.31632964729489        3.95157186657485
C           -5.37825099891280       -1.02954809429921        2.59882393731462
C           -4.54061887865992       -0.04557604802716        2.07933772152311
C           -4.52120001199091        0.24541410273798        0.63678652139151
C           -4.45792617810632        1.55428895576309        0.17069505258362
C           -4.42300534597816        1.82496944317389       -1.19262908875812
C           -4.36448940778256        3.21350221533750       -1.67804840800849
C           -3.50906351807636        4.13650459972079       -1.08098208769379
C           -3.45011102269378        5.43985849970107       -1.53956436170284
C           -4.24860495554131        5.84348889685061       -2.59717274643495
C           -5.10322982081078        4.93365326828315       -3.19771547696562
C           -5.15805275081524        3.62807159306952       -2.74482878437595
C           -4.41553558553760        0.76538083943913       -2.09386292582197
C           -4.43817225443439       -0.54973308698141       -1.64599622828657
C           -4.31803339436280       -1.66365438644822       -2.60637968162197
C           -5.14912841847860       -1.72590571534349       -3.71911485882545
C           -5.05050724310875       -2.76866029704574       -4.62325066333537
C           -4.11148019564466       -3.76707056052542       -4.42440683357443
C           -3.27424721642811       -3.71506214816123       -3.32411285978908
C           -3.35815372069958       -2.66914225591339       -2.41217204887491
C           -2.46552824074091       -2.63537367848281       -1.23741716365233
C           -2.51402723138449       -3.68594873601923       -0.32631296505399
C           -1.80952080566135       -3.63916236863851        0.85881787724854
C           -1.03144030524253       -2.52587295377362        1.17987104018266
C           -0.33785366865180       -2.41826794871264        2.41932418979380
C            0.43159198682148       -1.34238062440592        2.70329840065381
C            0.57953612798618       -0.27086369177767        1.77192858152102
C            1.43287631503031        0.81718827158887        2.01648572028411
C            2.27824706410004        0.88455722233744        3.23091407415294
C            1.73630893408237        1.23063647231921        4.46192601208534
C            2.54383964278108        1.35241125632285        5.57971316817846
C            3.90775816647607        1.13733588667568        5.47271800660962
C            4.45868626279097        0.79377686421335        4.25072741753489
C            3.65673421747033        0.65561701083417        3.12382735575797
C            4.23463606146884        0.26915674566818        1.82205705737627
C            5.29818611609084        0.97427216041440        1.27321124460915
C            5.79139078853318        0.65006120973844        0.01218957103759
C            6.92588864768591        1.39503387052406       -0.55903250854129
C            7.95216086537008        0.72352810285195       -1.21988137565535
C            9.02145635319093        1.42025831878795       -1.75235372494165
C            9.08072016078479        2.79961518166267       -1.63867421175831
C            8.06395952860934        3.47784607347395       -0.98673848618038
C            6.99705316635419        2.78186461164866       -0.44836382883007
C            5.18865640062379       -0.37583547673866       -0.70963747803744
C            4.13576039880386       -1.10365684341109       -0.16739013223854
C            3.44127515434946       -2.15229586741388       -0.93291570607425
C            3.06272766533818       -1.92305824222135       -2.25314097394566
C            2.34160637648089       -2.87293000769215       -2.95318690705751
C            1.99637266621828       -4.07021207915506       -2.34879384609706
C            2.38138201028306       -4.31462567022087       -1.04103009863228
C            3.09408342773024       -3.36192603297566       -0.33665690627689
C            3.68771970049457       -0.79154047529799        1.11024989833644
C            1.54045246077034        1.83420402475335        1.07537907496898
C            0.83882696554904        1.78763545990785       -0.11183436994616
C            0.02022445052937        0.69776336698306       -0.41202248686252
C           -0.65117320419595        0.57546776208352       -1.66195097016600
C           -1.43019700679203       -0.49464911692054       -1.93970386453656
C           -1.62068327336409       -1.53974092643796       -0.98864245072286
C           -0.92113260328081       -1.47064248584671        0.24121645560149
C           -0.11370874769797       -0.34426142457604        0.53779296690190
C           -4.52479962373048       -0.79812192938140       -0.28134645589466
C           -3.69762938674354        0.64259395238150        2.94878052053857
C           -3.68724654968907        0.34834504090781        4.29972198359326
H           -4.51884016183163       -0.85885817502223        5.86217758110858
H           -6.03386534278869       -2.07781584613609        4.34160598303287
H           -6.04974986760421       -1.55969412869278        1.93858810690583
H           -4.47250002218759        2.37293188385352        0.87562830199897
H           -2.87324666983716        3.82145198869087       -0.26578399226066
H           -2.77762704719835        6.14433244098306       -1.07081572961721
H           -4.20454896860672        6.86290715287558       -2.95229123110168
H           -5.73076374451126        5.24375885423300       -4.02117861182058
H           -5.83574877800301        2.92499327803783       -3.20775656204361
H           -4.33877342176272        0.96755087750543       -3.15268348641267
H           -5.89238820897247       -0.95442054948454       -3.86292973994667
H           -5.70758637141928       -2.80371091903254       -5.48015537621963
H           -4.03012440485721       -4.58428776229997       -5.12636884844606
H           -2.53019313939864       -4.48422971158316       -3.17124941118864
H           -3.14950278493573       -4.53446161543600       -0.54130948893569
H           -1.87667630676378       -4.45774061973439        1.56159007200634
H           -0.43760154709727       -3.22644988547035        3.13065739061316
H            0.96100277817487       -1.27858062566098        3.64358247096696
H            0.67302369523633        1.41112112654621        4.53619810723763
H            2.10914801967093        1.61997898200405        6.53194042617827
H            4.54223198914036        1.23583405366239        6.34164438597812
H            5.52111560575035        0.61388717294618        4.16567418301992
H            5.74382598106626        1.78555523661628        1.83102553470894
H            7.91773538151222       -0.35373370951340       -1.29918908452973
H            9.81358204307636        0.88505062560951       -2.25656962015281
H            9.91512393923898        3.34358882647593       -2.05695814874267
H            8.10242713226809        4.55439274977524       -0.89865631419012
H            6.19912156089367        3.31803505334831        0.04531347543352
H            5.54221534944149       -0.60793309435976       -1.70394451735124
H            3.31183076506293       -0.98126125774362       -2.72116757704896
H            2.04173096162385       -2.67568252696791       -3.97259595474913
H            1.42951861317104       -4.81018840731921       -2.89496260566868
H            2.11909748066356       -5.24906143549349       -0.56556215719091
H            3.39391437426956       -3.55841248785147        0.68297964772326
H            2.88478589590411       -1.36822431671145        1.54122718936876
H            2.19709194219115        2.66826832417633        1.28133372998127
H            0.93765017634906        2.58829348788765       -0.83135055496060
H           -0.51496622434426        1.36102758829922       -2.39232925093257
H           -1.90897558850831       -0.58417478230534       -2.90342633230878
H           -4.56631462016060       -1.81657014501005        0.07387433179736
H           -3.03003077389352        1.39637758800206        2.55639379410404
H           -3.02224346024295        0.88466053606007        4.96157088750822
