106
 energy: -158.481247948756 gnorm: 0.000049073790 xtb: 6.7.1 (edcfbbe)
C            0.10875159607902        2.01568667802661        4.70769162362372
C           -0.64923284812434        0.92837101664539        5.10981625728156
C           -1.65629764644889        0.44347509267089        4.29559875456222
C           -1.92587389316043        1.04543621557849        3.06962656410149
C           -2.97220624982752        0.52229176825442        2.17726930112389
C           -3.84802427848261        1.38032062901874        1.52150635863984
C           -4.80696600308748        0.88592009482073        0.64375433709736
C           -5.75930611889771        1.79173082254526       -0.01861314759156
C           -7.09608928741134        1.42671649124325       -0.16587279152130
C           -7.99554382592218        2.27498599469273       -0.78511077829450
C           -7.57385838249334        3.50062283723545       -1.27370395002672
C           -6.24715529259818        3.87381096248013       -1.13428071358015
C           -5.34830832328985        3.02936843396546       -0.50879071430938
C           -4.83841925618254       -0.48019581210746        0.37863388803657
C           -3.95060111222361       -1.35000451745890        1.00018849420379
C           -3.91551070106850       -2.77391333357062        0.62441514211632
C           -5.09724852109067       -3.49807982730502        0.53085642075672
C           -5.09041313026170       -4.84855583441006        0.22787205355210
C           -3.88293957794158       -5.49803421662178        0.01662446390257
C           -2.69862245037939       -4.79540256633876        0.10437147811164
C           -2.68519323435868       -3.42598231558288        0.38887929852091
C           -1.41527710971980       -2.71924739159232        0.48777993793452
C           -0.40697095630508       -3.24232679682646        1.30672820194324
C            0.68021937080140       -2.49427284693668        1.67160639569616
C            0.83285867646522       -1.15107865909141        1.20943080721728
C            1.85719076365345       -0.32175115098085        1.65969070883410
C            2.01416357174732        0.95993257033513        1.15174875784863
C            1.18617112464220        1.43446229776941        0.13476648480467
C            1.39888772870995        2.71288703729800       -0.49745799652445
C            2.66580072224028        3.42425416930856       -0.39317873344201
C            2.67202477851369        4.79366887504555       -0.10802392187900
C            3.85271500443977        5.50167129247476       -0.01515199923200
C            5.06393979523993        4.85780406446249       -0.22206015926425
C            5.07800201491807        3.50751041574682       -0.52545086275921
C            3.89998103758260        2.77783167390646       -0.62368092926805
C            3.94404904116253        1.35383651655933       -0.99812946504477
C            3.05738526857104        0.84089607427586       -1.93957494764673
C            2.98142786294010       -0.52576907185636       -2.17604237701402
C            1.94068679828958       -1.05695546627046       -3.07024457712546
C            1.67221981327952       -0.46039861396663       -4.29905353526205
C            0.67029300935669       -0.95304028148560       -5.11498430457047
C           -0.08363094627756       -2.04275789505854       -4.71169646659945
C            0.17220190936903       -2.63962141615474       -3.48838143128482
C            1.17865308246993       -2.15339617442272       -2.67522350361767
C            3.86083852517719       -1.37749598686093       -1.51693558683155
C            4.81339986148658       -0.87643656267748       -0.63591201491322
C            5.76884676195291       -1.77534214381315        0.03124511345611
C            5.36647323751309       -3.01988956533300        0.51118926000111
C            6.26809566884363       -3.85808307956641        1.14103536061836
C            7.58911317608109       -3.47130478072845        1.29632905396212
C            8.00227673507904       -2.23848619737312        0.81864675873031
C            7.10014460565192       -1.39693749660597        0.19418166164111
C            4.83461872604257        0.49013577023617       -0.37198728345850
C            0.39176128833921        3.23437946122412       -1.31888652066897
C           -0.69381833395659        2.48510381004499       -1.68600810265011
C           -0.84650994079597        1.14222816605916       -1.22318535948663
C           -1.87129602323604        0.31309890673800       -1.67284279815846
C           -2.02976364365498       -0.96762934164407       -1.16291937366755
C           -1.20128165681907       -1.44192307214037       -0.14631397060546
C           -0.09738350391810       -0.65080776847501        0.26324339514719
C            0.08344120576136        0.64247754155286       -0.27639942741286
C           -3.05766235625567       -0.84355207734025        1.93924924936885
C           -1.15980805008994        2.13950025380460        2.67588656314823
C           -0.14822662313501        2.61794289805806        3.48727688569109
H            0.89880789233132        2.39073830916465        5.34205648980396
H           -0.45458316216194        0.45614832689668        6.06237335069399
H           -2.25149306965145       -0.39933223890832        4.61738163487003
H           -3.80514581811448        2.43996761938592        1.72695665110184
H           -7.43488699547862        0.47889354771069        0.22712671831455
H           -9.03047061136203        1.98034033265201       -0.88549026768886
H           -8.27609089748002        4.16206130722960       -1.76005139329108
H           -5.91159011656240        4.82793892155292       -1.51543591020427
H           -4.31310747637367        3.32241854309700       -0.41313365579835
H           -5.52708634401413       -0.86161007601005       -0.36139365595135
H           -6.03467032515890       -2.99792718242324        0.72882749562888
H           -6.02047374029036       -5.39421778798117        0.16633373342100
H           -3.86837328219344       -6.55250956852549       -0.21866750766342
H           -1.76012231554955       -5.29814005411505       -0.08167366303169
H           -0.54346693146901       -4.22876228984425        1.72945580205138
H            1.41752081634550       -2.89123144132228        2.35405218535825
H            2.54199618804647       -0.68615820367355        2.41211060731106
H            2.79893553838722        1.59222868958404        1.53901376691144
H            1.73054087572931        5.29208635297811        0.07458783401002
H            3.83242322811916        6.55592250149313        0.22072233361056
H            5.99128533769595        5.40763770067711       -0.15677035360676
H            6.01846702777932        3.01173015754322       -0.71995034964493
H            2.39120049644360        1.50644539204634       -2.46751484297486
H            2.26434840203458        0.38429810541730       -4.62156426960050
H            0.47654226450482       -0.48501490086578       -6.06979909585117
H           -0.86963153422234       -2.42394176104454       -5.34743620587231
H           -0.41749290548905       -3.48567818698608       -3.16604513016926
H            1.36290805033107       -2.60811667610854       -1.71268111977952
H            3.82538806569707       -2.43742202029677       -1.72224482966769
H            4.33544762796862       -3.32356999408313        0.40434876042821
H            5.93899265971026       -4.81791060853861        1.51342711170116
H            8.29353116510776       -4.12771432304191        1.78630187992130
H            9.03280019455865       -1.93305401783258        0.93134752980121
H            7.43314150161187       -0.44374297036113       -0.19065616108065
H            5.51731400434091        0.87689374163625        0.37076382620818
H            0.52770902942331        4.22111288944632       -1.74108660127258
H           -1.43037787669732        2.88128069624097       -2.36970954140071
H           -2.55580521903680        0.67731155335380       -2.42562856266446
H           -2.81609479702227       -1.59926406890984       -1.54817754541929
H           -2.39406996056679       -1.51396622315694        2.46426633822769
H           -1.34509483343727        2.59855759833327        1.71561731114612
H            0.44449593984194        3.46219736110835        3.16584868066848
