106
 energy: -158.551853803237 gnorm: 0.000044515777 xtb: 6.7.1 (edcfbbe)
C           -0.10435197868508        2.12620236575629        4.87383143257664
C           -0.85802361322672        1.03512864860242        5.27400146074356
C           -1.83826562992487        0.52431860611475        4.44290349269672
C           -2.08496017433172        1.10341713958573        3.20133286976122
C           -3.09919593714030        0.55075568002129        2.28950882902923
C           -3.97130684604911        1.38572824525811        1.59982940541377
C           -4.89475613213198        0.86442272530323        0.70044295921457
C           -5.83798665298741        1.74648732569168       -0.00591510683155
C           -7.16756545387537        1.36800445072629       -0.17911147446556
C           -8.05587377921420        2.19462453324372       -0.84238978402195
C           -7.62936112127786        3.41101142580745       -1.34956491092039
C           -6.30905916315879        3.79664092948368       -1.18551949666497
C           -5.42131589101729        2.97368049016707       -0.51691434446728
C           -4.89399132200353       -0.50453925472836        0.45106469751692
C           -4.00728302093814       -1.35092377897662        1.10638410872422
C           -3.93310291907318       -2.77379234619727        0.72325800244759
C           -5.09588242285607       -3.52815901203135        0.60870367722988
C           -5.05167624586182       -4.85735727980245        0.22797006996417
C           -3.83305832666489       -5.45273181935157       -0.05126798793076
C           -2.66750198345317       -4.71615457806477        0.06053647669555
C           -2.69680555413590       -3.37852869329682        0.44057987269232
C           -1.43388111874738       -2.63246137178900        0.60272625260502
C           -0.49105346050195       -3.11864500779866        1.50474752808122
C            0.62842189364789       -2.38427197247481        1.83763201312693
C            0.83738965225709       -1.11818015304417        1.28786035922816
C            1.92146644306202       -0.28726771258926        1.68877713821422
C            2.11875731624726        0.92786778829543        1.12921378744697
C            1.25737721767470        1.41940583667124        0.10529949224035
C            1.49138406515216        2.64270249696797       -0.54804081170927
C            2.76275462992036        3.37696585215030       -0.39758093123491
C            2.75601604292480        4.70976486747713       -0.00127586193056
C            3.93313198984833        5.42924645563925        0.10239644212717
C            5.13965614240001        4.82110725692336       -0.20074344406298
C            5.16105371939318        3.49654622291083       -0.59975259832572
C            3.98663507016171        2.75992705721241       -0.70764932644435
C            4.03045029333846        1.34180107040275       -1.11275058685844
C            3.14821761771093        0.84236952737174       -2.06431965802939
C            3.05949260392899       -0.52251520876292       -2.30569676049543
C            2.01474898298612       -1.03791853243519       -3.20489909603605
C            1.76865443237847       -0.44598040186714       -4.44042576880382
C            0.75987031091470       -0.92134239566869       -5.25830542626940
C           -0.02327996036410       -1.98845654465516       -4.85023722077334
C            0.21017725245885       -2.58045082429152       -3.62005952951374
C            1.22286379000209       -2.11106122290985       -2.80458032449911
C            3.92111212938138       -1.38685141509363       -1.63961403358545
C            4.87172202352766       -0.89861711269380       -0.74999811271192
C            5.80534433367363       -1.81261984596473       -0.07194922578149
C            5.36637491024131       -3.03355016177432        0.43524295750165
C            6.24535021029051       -3.88715346078252        1.07641502871670
C            7.57898657960514       -3.53926490539553        1.21517271535160
C            8.02760798720125       -2.32954548132465        0.71115031408256
C            7.14809843170742       -1.47197502702721        0.07599535547890
C            4.90726996601706        0.46667732822726       -0.48260259711811
C            0.54301075784473        3.13439561619076       -1.44093125469477
C           -0.57690318116660        2.40004283368804       -1.77296157898088
C           -0.78116024271836        1.13020835557576       -1.23007557290368
C           -1.85986833881949        0.29561410652314       -1.63759005964367
C           -2.05390431877366       -0.92200107747374       -1.08248833884138
C           -1.19818827527075       -1.41041881663364       -0.05230048838504
C           -0.07445611576267       -0.63204014912834        0.31934780635287
C            0.13151298780233        0.64288578410964       -0.26305381945944
C           -3.14994052720942       -0.81882078050791        2.06276825851965
C           -1.32280556817193        2.20097735369979        2.80914903528662
C           -0.33888362975423        2.70640649622607        3.63822801308114
H            0.66438421630683        2.52180019574161        5.52173386129124
H           -0.68106443060592        0.58045435445630        6.23847903133859
H           -2.43044525622618       -0.32136089994002        4.76274923921353
H           -3.95247832280759        2.44851603296099        1.79269769017272
H           -7.50976171387942        0.42696262917659        0.22724955984293
H           -9.08582858335222        1.89018200152660       -0.96292301772177
H           -8.32290378886009        4.05541335273814       -1.87010617332918
H           -5.96956588991052        4.74316645746572       -1.58191692621682
H           -4.38967402620484        3.27416853852274       -0.40398189112260
H           -5.55613199008964       -0.90735922939319       -0.30195940117083
H           -6.04502340990791       -3.06637038739863        0.84104634137226
H           -5.96607232522310       -5.42749641218901        0.15064184951025
H           -3.79015169923963       -6.48922539426248       -0.35305852285531
H           -1.71467556552999       -5.17582652237981       -0.16248889030587
H           -0.67022838439520       -4.07139542853418        1.98442889466579
H            1.33638721973359       -2.77119505833725        2.55728332881205
H            2.58338039635686       -0.65015873169790        2.46282301851918
H            2.93163593159966        1.55590595958807        1.46241498080313
H            1.81266869246169        5.17907678993308        0.24093893158713
H            3.90852665438414        6.46263148759645        0.41669113066182
H            6.06259199842980        5.37798794013440       -0.12847405225449
H            6.10056817998877        3.02520552257717       -0.85129916948929
H            2.49008316259424        1.51485969790356       -2.59286526703273
H            2.38348606483791        0.38108302540348       -4.76616708161695
H            0.58359719577276       -0.45756867656098       -6.21856786702028
H           -0.81457221340644       -2.35575851357977       -5.48759374787649
H           -0.40287399983391       -3.40805639902705       -3.29313319460393
H            1.38978010135185       -2.56070522083609       -1.83638750985724
H            3.87211832866398       -2.44669380312967       -1.84338781705819
H            4.32490611215858       -3.30501591132491        0.34095574177775
H            5.88883102003974       -4.82836531336180        1.47048657752167
H            8.26571416278248       -4.20804364458686        1.71353921950478
H            9.06793717773959       -2.05461791957877        0.81196592906533
H            7.50660467154713       -0.53606332951788       -0.32814854186729
H            5.59025123990360        0.84381364453841        0.26511513949284
H            0.71947302836154        4.08965615962221       -1.91666536377618
H           -1.28764446467210        2.78905596464962       -2.48873924774519
H           -2.51905406177815        0.65660871788265       -2.41481281775145
H           -2.86140115851836       -1.55319360264135       -1.42242659952719
H           -2.48297924838811       -1.46900490872741        2.60799235746171
H           -1.48912214333616        2.64151379703735        1.83670270475149
H            0.25145437821146        3.55287700983618        3.31764352864509
