  35
  -65.7953508512000        1.00000000000000      !
 O         -2.5609262452       -2.7303101968       -0.0322307661
 C         -2.3899734118       -1.5294725672       -0.0166478596
 C         -3.5171968580       -0.5690492484       -0.0020256423
 C         -4.8146357547       -1.0771464731        0.0071267777
 C         -5.9072511082       -0.2299354772        0.0225099305
 C         -5.7163105314        1.1441660387        0.0275806407
 C         -4.4342346155        1.6618633470        0.0168818307
 C         -3.3245247645        0.8196376243        0.0024028032
 C         -1.9774969297        1.4353115728       -0.0107948829
 O         -1.8136951373        2.6388356109       -0.0212561166
 C         -0.8419023892        0.4813786706       -0.0084712325
 N          0.3742776312        1.0026474524       -0.0056014623
 C          1.4162307635        0.1784237081       -0.0022133031
 C          1.2277485564       -1.2339565275        0.0003496188
 C          2.3461562476       -2.0936164872        0.0077939273
 C          3.6176572503       -1.5915963989        0.0108069506
 O          4.6348989424       -2.4763357494        0.0176741427
 C          3.8543125802       -0.1674274277        0.0056721766
 C          5.1432578414        0.3917053023        0.0064890929
 C          5.3245915435        1.7545765029        0.0019348634
 C          4.2268961619        2.6148673663       -0.0035828295
 C          2.9541062043        2.0991633623       -0.0048546343
 C          2.7482212738        0.7137316905       -0.0001871779
 N         -0.0067878423       -1.7506821720       -0.0051513285
 C         -1.0312179702       -0.9207417797       -0.0096876948
 H         -4.9390471499       -2.1499331076        0.0026256399
 H         -6.9062497505       -0.6388628233        0.0302789505
 H         -6.5657345745        1.8102529491        0.0385348419
 H         -4.2613074297        2.7279697346        0.0183055273
 H          2.1839317872       -3.1586838219        0.0106273532
 H          5.4922151054       -2.0308955010        0.0190927733
 H          6.0222307546       -0.2409660725        0.0100642907
 H          6.3249690925        2.1608833366        0.0006011428
 H          4.3826119162        3.6827629745       -0.0098802138
 H          2.0830195997        2.7352488412       -0.0110722749
