48
 energy: -82.955414710086 gnorm: 0.000110906420 xtb: 6.7.1 (edcfbbe)
N           -6.25493764565833        0.91177305707589       -3.30125592880020
C           -5.68719072313067        0.64623446611086       -2.34111282160428
C           -4.98434165051554        0.31949629342870       -1.15630851430681
C           -5.69345323946432        0.00004759584542       -0.00073880047994
C           -4.98460574409256       -0.31926462112752        1.15503431126433
C           -5.68768779245760       -0.64577920464178        2.33975479009660
N           -6.25585253767103       -0.91165977729237        3.29956542447860
C           -3.58885278563909       -0.32122404498652        1.15653075628164
C           -2.88760105355609        0.00019040701075       -0.00038548363577
C           -1.40658732108297       -0.00001619103832       -0.00019419480060
C           -0.71522080372427       -1.21896576389089       -0.01445198575321
C           -1.39203734290049       -2.46719146032886       -0.04886522002722
C           -0.70551141545896       -3.64234417000708       -0.05215214017130
C            0.70372240912614       -3.64303064298363       -0.01848513669161
C            1.39096417239258       -2.46844930797124        0.00185462713353
C            0.71500663108150       -1.21933651633769       -0.00871698770007
C            1.40691288898078       -0.00056921385195        0.00047354983008
C            2.88787686240330       -0.00065911146624        0.00073819124627
C            3.58887837443015        0.30591580935563        1.16188330025146
C            4.98463745475049        0.30435601304102        1.16064147077543
C            5.68740067768199        0.61646048220744        2.34942064505717
N            6.25468816996294        0.86970999245602        3.31315675649578
C            5.69384484616498        0.00009296621682        0.00104795794873
C            4.98505238691227       -0.30462402617680       -1.15867722012099
C            5.68814168761313       -0.61583645786981       -2.34749619506057
N            6.25582435889237       -0.86867391629447       -3.31110914467087
C            3.58929368934140       -0.30696021342269       -1.16022504265683
C            0.71545852232874        1.21846699810861        0.00928831765064
C            1.39189758796600        2.46731852486385       -0.00112672135323
C            0.70510632475815        3.64217039937689        0.01871421473989
C           -0.70413937109349        3.64204099907602        0.05183758238654
C           -1.39111767388910        2.46715276510099        0.04838371264293
C           -0.71476882791282        1.21866134240546        0.01431925625298
C           -3.58857973256422        0.32162555783161       -1.15745187488469
H           -6.77331789525107        0.00001472484304       -0.00086852899093
H           -3.05379465692104       -0.57049205116566        2.06107361364165
H           -2.47159329939978       -2.47250058178973       -0.07392558845532
H           -1.23477490414682       -4.58332816858053       -0.07813442142885
H            1.23246266421014       -4.58463879809759       -0.01106928562813
H            2.47046310081806       -2.47508780214964        0.02782274420568
H            3.05368731307001        0.54341146254355        2.06952162834557
H            6.77371014722041        0.00054734408990        0.00112518689634
H            3.05444380355177       -0.54470926798575       -2.06799726648013
H            2.47141077184355        2.47357195632469       -0.02650932399999
H            1.23423684170062        4.58356175103298        0.01152990744931
H           -1.23303556834200        4.58324463924910        0.07732597861489
H           -2.47068549313160        2.47286281980938        0.07288549533881
H           -3.05332864543547        0.57091584610414       -2.06187435298137
