48
 energy: -82.887318210498 gnorm: 0.000029921315 xtb: 6.7.1 (edcfbbe)
N           -6.25274122950054        2.12274543297088       -2.69658524615044
C           -5.68900400052289        1.50202899301142       -1.91395211355700
C           -4.99068276817257        0.74349020850615       -0.94453422800470
C           -5.70625441967927        0.00265347509257       -0.00284747714756
C           -4.99232246141768       -0.73893411837226        0.93948772023188
C           -5.69236150469121       -1.49671535622346        1.90826076572031
N           -6.25746375029936       -2.11680376504368        2.69040687857999
C           -3.60019915360379       -0.74321286497767        0.94132122069786
C           -2.88211428676998        0.00120069875088       -0.00151886747859
C           -1.42411276926624        0.00057826941818       -0.00082548870788
C           -0.71371932281837       -1.23898501149977       -0.04468543182229
C           -1.37256378218363       -2.46515944119913       -0.18102336138850
C           -0.68324048915809       -3.67477608133166       -0.12844880114903
C            0.68135658291124       -3.67672788135336        0.06888949942031
C            1.37124077728158       -2.46842266745391        0.13980961923456
C            0.71256673444925       -1.23998021946362        0.02416274114928
C            1.42360902872058       -0.00052739497782        0.00048508544096
C            2.88196290636018       -0.00120336873453        0.00150198932907
C            3.59853049278016        0.72093908883326        0.96240049103530
C            4.99069711609144        0.71527181174803        0.96327148636894
C            5.68978937762829        1.44763024031414        1.95210177727034
N            6.25432405540083        2.04712337607270        2.75053508460992
C            5.70569304342806       -0.00345865090535        0.00423070827187
C            4.99141989033382       -0.72085322314482       -0.95634191121698
C            5.69126752363466       -1.45424244501048       -1.94388015235760
N            6.25631329621316       -2.05453659603139       -2.74134812208665
C            3.59925422856448       -0.72426811623824       -0.95817969622643
C            0.71355995199831        1.23946560837513       -0.02394920544487
C            1.37332280425215        2.46736466668687       -0.13913839455674
C            0.68430328995177        3.67621913606027       -0.06907083406695
C           -0.68046412144769        3.67536012022630        0.12711086198081
C           -1.37077993160794        2.46629376538150        0.17931403269752
C           -0.71278724418659        1.23958755046570        0.04362712343913
C           -3.59856053390912        0.74632113917654       -0.94505315337325
H           -6.78552942469978        0.00322017020382       -0.00333616571651
H           -3.07231238013205       -1.30259489868211        1.69942334728561
H           -2.43979946479801       -2.48441156405565       -0.33896888421615
H           -1.22641228199238       -4.60217565444866       -0.22721677372634
H            1.22402702148718       -4.60584802540899        0.15318366874664
H            2.43867731056467       -2.49024929796121        0.29611861329806
H            3.06955545710603        1.26355837897144        1.73185655572435
H            6.78496972698424       -0.00445859474044        0.00538055023777
H            3.07091965272574       -1.26597695138914       -1.72871339605121
H            2.44092869583623        2.48829709368643       -0.29442707507281
H            1.22773905848733        4.60491630696090       -0.15309130449641
H           -1.22301090592176        4.60319369655226        0.22525704264590
H           -2.43812142218869        2.48640433302074        0.33643965129892
H           -3.06936482248527        1.30516152956634       -1.70264319010958
