48
 energy: -82.887318596576 gnorm: 0.000046984765 xtb: 6.7.1 (edcfbbe)
N           -6.25116378670648        2.11005528025769       -2.70409745639106
C           -5.68796404423512        1.49257986873753       -1.91852292400823
C           -4.99018801918745        0.73872301878590       -0.94505968548945
C           -5.70630423665832        0.00375232867092        0.00080011575456
C           -4.99287357247992       -0.73259470831959        0.94760223111520
C           -5.69367934190728       -1.48465380277351        1.92029139320438
N           -6.25942825828383       -2.10057577134988        2.70525003876360
C           -3.60075257239311       -0.73733216065064        0.94994380408327
C           -2.88203699511045        0.00089213518240        0.00265520363364
C           -1.42409688852553       -0.00008256951957        0.00329828303036
C           -0.71355816810798       -1.23985985376982       -0.03016473272754
C           -1.37237485406547       -2.46727486797974       -0.15564848003920
C           -0.68322363291104       -3.67633344824719       -0.09141788942673
C            0.68108348001223       -3.67640637122968        0.10817714008434
C            1.37088866262126       -2.46753033537079        0.16856011810341
C            0.71272461717646       -1.24017751720507        0.03917170872164
C            1.42407847921994       -0.00099137489521        0.00166884816390
C            2.88203219263213       -0.00126218315176        0.00074951685744
C            3.60003438556937        0.74005066987608        0.94615709065589
C            4.99214557377201        0.73688325328010        0.94373184481963
C            5.69201650286676        1.49225671906580        1.91451947139669
N            6.25678773923938        2.11074472323855        2.69816238676437
C            5.70626594497236       -0.00092797213137       -0.00141633501896
C            4.99085054814273       -0.73897264924014       -0.94539994791014
C            5.68939267672090       -1.49398162644178       -1.91742120060160
N            6.25338845088273       -2.11214634976822       -2.70188187411403
C            3.59872901190069       -0.74251368114959       -0.94567852554509
C            0.71350367990987        1.23865984859809       -0.03473068925535
C            1.37217784814804        2.46564134419482       -0.16509954343123
C            0.68319529374662        3.67491578277924       -0.10333610328424
C           -0.68076115078517        3.67562379880658        0.09862983314437
C           -1.37052986402737        2.46695441821735        0.16362923383584
C           -0.71265405088498        1.23919965041600        0.03658779039265
C           -3.59808919179411        0.74059888886186       -0.94551375734587
H           -6.78557558708536        0.00483559721842        0.00012526712322
H           -3.07344832917361       -1.29206199324294        1.71185416696142
H           -2.43942265979094       -2.48785709690045       -0.31466973603855
H           -1.22624586753447       -4.60460126610088       -0.18255054735511
H            1.22358368728575       -4.60468533115576        0.20225205823824
H            2.43795598298106       -2.48815798817370        0.32746492780093
H            3.07209557751129        1.29620442665228        1.70659085929235
H            6.78553848493229       -0.00070028376902       -0.00232114909386
H            3.06977672433933       -1.29878903659339       -1.70531870861350
H            2.43896458785356        2.48567766840447       -0.32594722424916
H            1.22609151408453        4.60288057371622       -0.19819909282041
H           -1.22306726454842        4.60418775906394        0.19096678044310
H           -2.43729756760138        2.48812052777077        0.32446943019847
H           -3.06860491896292        1.29449170608279       -1.70652491567836
