  80
       -116.55866834
 C         -7.5588922441        1.5417970596        0.6604777703
 C         -6.1101058990        1.3902134876        1.1622004483
 C         -5.9102141681        2.1938592100        2.4617559646
 C         -5.8426957163       -0.0701800197        1.4574683314
 C         -6.6116713903       -0.7287924563        2.4067523081
 C         -6.3818807569       -2.0484031095        2.7501192536
 C         -5.3316798371       -2.7316468410        2.1548103031
 C         -4.5529314449       -2.1044136630        1.2095090364
 C         -4.8128566665       -0.7817483780        0.8208373005
 N         -4.0310624014       -0.1889862351       -0.1495098368
 C         -3.0249620158       -0.9601832200       -0.7928086030
 C         -3.4156697448       -2.0007162039       -1.6351007474
 C         -2.4456505842       -2.7797589657       -2.2914016263
 C         -1.1227588547       -2.4932123562       -2.0513060511
 N          0.0052966049       -3.0979450463       -2.5495877938
 C          1.1283547178       -2.4911349041       -2.0467469985
 C          2.4537269698       -2.7733873855       -2.2815795965
 C          3.4184807993       -1.9904707019       -1.6236926610
 C          3.0217194751       -0.9502519951       -0.7818078907
 N          4.0234293321       -0.1725249438       -0.1429532084
 C          4.8403822092       -0.7698352255        0.7959400515
 C          4.6037917501       -2.0997285790        1.1773007342
 C          5.4205599950       -2.7327088978        2.0857052614
 C          6.4868597978       -2.0485162304        2.6519098046
 C          6.6915342343       -0.7213381169        2.3212726365
 C          5.8827300027       -0.0559292354        1.4105914828
 C          6.1219280372        1.4125464465        1.1331729530
 C          7.5452486909        1.5899279054        0.5708289198
 C          5.9720710183        2.1881870086        2.4558451688
 C          5.1372917010        1.9650726287        0.1251807621
 C          5.2127826887        3.3008647069       -0.2421920872
 C          4.3721556509        3.8495414686       -1.1938533057
 C          3.4450141205        3.0366910141       -1.8297888676
 C          3.3487256492        1.7074954561       -1.4880832317
 C          4.1622367985        1.1575669248       -0.4850280496
 C          1.6840309824       -0.6492607003       -0.5445680960
 C          0.7047761931       -1.4378791231       -1.1766063577
 C         -0.7057612582       -1.4392339710       -1.1800780347
 C         -1.6897253246       -0.6521617444       -0.5529868333
 C         -4.2027700094        1.1299884760       -0.5158290835
 C         -3.4251001746        1.6708023677       -1.5510504063
 C         -3.5611938720        2.9878275339       -1.9259470624
 C         -4.4898234802        3.7963170921       -1.2876869878
 C         -5.2889309328        3.2570097275       -0.2961818945
 C         -5.1747329823        1.9330060171        0.1031677511
 H         -8.2650815301        1.1735948851        1.3991942740
 H         -7.6932133485        0.9730412854       -0.2578200885
 H         -7.7920239372        2.5830407984        0.4565891933
 H         -6.5787769816        1.8416406155        3.2420511478
 H         -4.8853916212        2.0824561300        2.8108486549
 H         -6.1043094290        3.2500081644        2.2971259694
 H         -7.4144443281       -0.2012486738        2.8991403706
 H         -7.0037488169       -2.5324866559        3.4873416718
 H         -5.1163957822       -3.7519169842        2.4341513962
 H         -3.7261849792       -2.6318792675        0.7618703478
 H         -4.4646952863       -2.1895533745       -1.7973397011
 H         -2.7427886990       -3.5648375511       -2.9695792160
 H          0.0052115619       -3.8874239372       -3.1738248382
 H          2.7554227026       -3.5574432705       -2.9589951597
 H          4.4686895690       -2.1729217695       -1.7860095169
 H          3.7653239712       -2.6282710631        0.7532223464
 H          5.2234542456       -3.7583048108        2.3590376837
 H          7.1398270503       -2.5379744148        3.3582322630
 H          7.5066927590       -0.1932075208        2.7925586852
 H          7.7570888974        2.6375444635        0.3765464487
 H          7.6452293458        1.0402643843       -0.3629890675
 H          8.2868295245        1.2161672893        1.2709028271
 H          4.9651715047        2.0588019369        2.8481485493
 H          6.1482001275        3.2492639776        2.3045054871
 H          6.6783491816        1.8283082782        3.1984956271
 H          5.9491079424        3.9389365419        0.2224565297
 H          4.4526095324        4.8949951060       -1.4494972336
 H          2.8017223393        3.4392691240       -2.5976708920
 H          2.6404441374        1.0754633218       -1.9988524984
 H          1.4117035637        0.1465542603        0.1302063711
 H         -1.4227488265        0.1477560593        0.1189458740
 H         -2.7136236777        1.0409452227       -2.0603258418
 H         -2.9482380713        3.3838312054       -2.7214163734
 H         -4.6038111257        4.8317258887       -1.5721423329
 H         -6.0263329334        3.8917480518        0.1723411484
