  66
       -110.08134895
 C         -7.2892441476        0.2478129928       -0.5386697481
 C         -6.2617437457        1.1368883326        0.1854876430
 C         -6.9770404195        2.2582123977        0.9611437313
 C         -5.3527681934        1.7634729636       -0.8528486213
 C         -5.9054590973        2.5614883177       -1.8461998350
 C         -5.1389460362        3.1222350171       -2.8497853467
 C         -3.7814921945        2.8603253155       -2.8871113730
 C         -3.2069343654        2.0744852734       -1.9107222346
 C         -3.9720691151        1.5445601462       -0.8672960441
 N         -3.3606643366        0.7687935607        0.1133688830
 C         -1.9577593200        0.6212441669        0.0931095235
 C         -1.1320629138        1.7300664785        0.3038622398
 C          0.2308139538        1.5715638159        0.2834032207
 C          0.8057850152        0.3155300208        0.0580225321
 C         -0.0139758116       -0.8132192232       -0.1506498403
 C         -1.3968399156       -0.6263822946       -0.1331262255
 C          0.5926860888       -2.1189664613       -0.3775106618
 C         -0.1697174049       -3.2716862817       -0.5766713374
 C          0.4356419770       -4.5031719093       -0.7882878012
 C         -0.3705452811       -5.6490217838       -0.9875895882
 N         -1.0289921129       -6.5731268472       -1.1468274653
 C          1.8307317588       -4.6216782488       -0.8061298687
 C          2.5941149523       -3.4984305953       -0.6077871099
 C          1.9968122113       -2.2512192259       -0.3931682650
 C          2.8388474615       -1.0946932453       -0.1833868167
 N          4.1471852358       -1.2471274035       -0.2027970905
 C          4.9113565844       -0.1624488322       -0.0068661283
 C          6.3141413802       -0.2882498379       -0.0177896438
 C          7.1018501515        0.8207233367        0.1786415645
 C          8.5125255905        0.7036937558        0.1704623310
 N          9.6526040694        0.5939198041        0.1627023106
 C          6.5080200791        2.1014416629        0.3930656986
 C          7.3434599601        3.2274844541        0.5901437846
 N          8.0068476800        4.1470353458        0.7514561966
 C          5.1416786826        2.2435176886        0.4083053367
 C          4.3166980419        1.1177551231        0.2107257883
 N          2.9850480752        1.2618647980        0.2291949754
 C          2.2415221517        0.1874589912        0.0409245859
 C         -4.0974072230        0.1561758002        1.1232426808
 C         -3.4426463682       -0.5640655163        2.1271355420
 C         -4.1495593796       -1.1954633840        3.1285124439
 C         -5.5293294572       -1.1082263779        3.1576909879
 C         -6.1763674724       -0.3592584808        2.1936261642
 C         -5.4887417473        0.2876837787        1.1749943158
 H         -7.9721948938       -0.2123693403        0.1696641209
 H         -7.8749357697        0.8274751405       -1.2463896030
 H         -6.7763345759       -0.5422497148       -1.0840582103
 H         -6.2445935969        2.8811539226        1.4713326915
 H         -7.6530963581        1.8460887505        1.7048853957
 H         -7.5536816365        2.8874884583        0.2890547958
 H         -6.9677756630        2.7517699796       -1.8423470562
 H         -5.5999319636        3.7424262079       -3.6028860033
 H         -3.1664443420        3.2619504985       -3.6782644285
 H         -2.1505027021        1.8614990516       -1.9645183803
 H         -1.5772613094        2.6968484266        0.4833172212
 H          0.8924432368        2.4069040882        0.4483968613
 H         -2.0708727689       -1.4516934541       -0.2985789758
 H         -1.2473620996       -3.2331331528       -0.5690994937
 H          2.2859446220       -5.5860249261       -0.9725775665
 H          3.6714252581       -3.5476697467       -0.6114713692
 H          6.7501239383       -1.2618655874       -0.1814986121
 H          4.6807696277        3.2058267684        0.5703310802
 H         -2.3651669676       -0.6213826196        2.1330239845
 H         -3.6182715937       -1.7497626653        3.8875046505
 H         -6.0952391871       -1.6030629350        3.9316973382
 H         -7.2511733450       -0.2753279830        2.2427157413
