  92
       -130.76743974
 C         -6.6785977873       -5.2422530404        2.0796389878
 C         -6.1788645395       -3.9496919560        1.5109912325
 C         -6.2794120425       -3.6787659108        0.1511918978
 C         -5.8201477234       -2.4899776016       -0.3878101006
 C         -5.9675176692       -2.2576334745       -1.8625391993
 C         -5.1988736128       -1.5302033598        0.4331415868
 B         -4.5648373996       -0.2200480172       -0.1629949715
 C         -3.1439875415        0.1902711633        0.1901917596
 C         -2.7026295079        1.5427385406        0.1112482649
 C         -1.4288178117        1.9200912932        0.4211924900
 C         -0.4751193302        0.9584090966        0.8152352686
 N          0.8297072696        1.3300959079        1.0960522817
 C          1.2168633169        2.4096685798        1.8737330179
 C          0.4379353512        3.3001462582        2.5931555596
 C          1.0843137176        4.2837486231        3.3258297202
 C          2.4747968286        4.3725510558        3.3476524243
 C          3.2603967185        3.4698315519        2.6565631422
 C          2.6347096378        2.4698320080        1.9198599725
 C          3.1135678218        1.3771733427        1.1322829561
 C          4.3814185197        0.9331736114        0.7872228024
 C          4.4964231535       -0.1646928615       -0.0574530015
 N          5.7622699033       -0.6198143476       -0.4361079217
 C          6.7905410150        0.1683087969       -0.9149001492
 C          6.8115445891        1.5312299430       -1.1770476740
 C          7.9747194651        2.0715456761       -1.6926958949
 C          9.0905498777        1.2801404519       -1.9532617660
 C          9.0659257737       -0.0822620851       -1.7219480879
 C          7.9091432492       -0.6471852192       -1.2048693751
 C          7.5275107684       -1.9942277241       -0.8778278803
 C          8.1896097405       -3.2122697657       -0.9274864819
 C          7.5204035713       -4.3463918693       -0.5077284169
 C          6.2155515475       -4.2720212655       -0.0268621550
 C          5.5363371329       -3.0695780240        0.0336244795
 C          6.1931024140       -1.9311865384       -0.4128486529
 C          3.3535077496       -0.8108784229       -0.5608011413
 C          2.0851164779       -0.3846940055       -0.2200714575
 C          1.9617631377        0.6961924673        0.6414866248
 C         -0.8769511895       -0.3909163000        0.9011471033
 C         -2.1609292886       -0.7507440563        0.6114819919
 C         -5.4240404151        0.6647685246       -1.1421295072
 C         -6.7263812508        1.0801399519       -0.8078605636
 C         -7.3712592487        0.6281900554        0.4690343027
 C         -7.4197718028        1.9397970469       -1.6405386707
 C         -6.8768082535        2.3912324571       -2.8389936242
 C         -7.6482199766        3.3226562789       -3.7234027521
 C         -5.6085343769        1.9525426390       -3.1860062426
 C         -4.8904745090        1.0893481935       -2.3725938540
 C         -3.5411295037        0.6314895277       -2.8448748980
 C         -5.1332300428       -1.7877632589        1.8159476611
 C         -4.5587631053       -0.7844248381        2.7731508812
 C         -5.6012911503       -2.9873581446        2.3268495826
 H         -7.0506160145       -5.1024949055        3.0924475555
 H         -7.4738746124       -5.6562623161        1.4638852274
 H         -5.8671066414       -5.9706520821        2.1176308128
 H         -6.7326826041       -4.4146898410       -0.4993923976
 H         -6.3053755261       -3.1616909117       -2.3646133251
 H         -6.6894518394       -1.4657517603       -2.0512920107
 H         -5.0206371638       -1.9462467509       -2.2957806125
 H         -3.4138265647        2.2869608778       -0.2180374530
 H         -1.1158790841        2.9489219889        0.3137228105
 H         -0.6383628558        3.2253061292        2.5986914172
 H          0.4981445218        4.9892505282        3.8944973990
 H          2.9432374066        5.1542588753        3.9266503903
 H          4.3375024589        3.5305093381        2.6919549726
 H          5.2624846226        1.4162788436        1.1797003125
 H          5.9444466812        2.1491052981       -0.9999096881
 H          8.0161044579        3.1298839227       -1.9027183418
 H          9.9814444397        1.7397570066       -2.3536397943
 H          9.9237794767       -0.6985032549       -1.9437387908
 H          9.2073952283       -3.2680018451       -1.2826831144
 H          8.0164290052       -5.3046411154       -0.5415838171
 H          5.7242736197       -5.1725001213        0.3102505682
 H          4.5323495232       -3.0184361522        0.4264691162
 H          3.4793600106       -1.6263177626       -1.2554835979
 H          1.2152684420       -0.8643145071       -0.6409363735
 H         -0.1635447014       -1.1238127918        1.2510932604
 H         -2.4593363320       -1.7854439989        0.7048132894
 H         -8.3026567292        1.1628717327        0.6423748825
 H         -7.5847606073       -0.4378554701        0.4298486808
 H         -6.7059833952        0.7974098200        1.3118613190
 H         -8.4108220696        2.2681378555       -1.3571421934
 H         -7.5930632043        4.3398160221       -3.3328955715
 H         -8.6980338190        3.0378552434       -3.7627017070
 H         -7.2446015970        3.3241980726       -4.7331949791
 H         -5.1727612485        2.2774766988       -4.1214188404
 H         -2.7736653988        1.3429730833       -2.5390994701
 H         -3.2833685891       -0.3325081983       -2.4156523981
 H         -3.5202214743        0.5605224634       -3.9311288648
 H         -3.4919574399       -0.9620129737        2.9106111555
 H         -5.0413348980       -0.8636947689        3.7457413244
 H         -4.6751929339        0.2269866876        2.3943699654
 H         -5.5283756214       -3.1714812903        3.3904393240
