92
 energy: -130.910607837601 gnorm: 0.000063353049 xtb: 6.7.1 (edcfbbe)
C           -8.36656857046317       -3.53285639189150        0.70248595983414
C           -7.26385956182909       -2.53718318915453        0.50098946555656
C           -7.16124000353198       -1.39923951130932        1.28510920653509
C           -6.14988598696375       -0.46891993479238        1.09006832413268
C           -6.08713777244256        0.72710220650352        1.99527994299163
C           -5.18357697428286       -0.66698447040119        0.09024165764325
B           -3.99597712758695        0.33867805901991       -0.11968084567100
C           -2.53718452439763       -0.22693171931992       -0.07514204351249
C           -2.19214493422294       -1.29590443848520        0.75851978893811
C           -0.90515658271421       -1.79190318432011        0.81031378274147
C            0.08012519559550       -1.25725975461962       -0.01589103221617
N            1.38331647045453       -1.77871931750254        0.00637129944474
C            1.71935815457354       -3.11552636173275       -0.08326591200300
C            0.90260188178284       -4.22624002568361       -0.24840532961865
C            1.50652216866725       -5.46603699481738       -0.33257253047130
C            2.89145918929760       -5.60882920695455       -0.26520770242650
C            3.71155645817712       -4.50676869008872       -0.12974352192582
C            3.12681428453309       -3.24940220867261       -0.04318527815841
C            3.65802457747846       -1.92075777651012        0.07190577551762
C            4.94849565141624       -1.42004590160322        0.16027397342306
C            5.12171355322460       -0.04784462937040        0.26149648763549
N            6.42087274710203        0.49129925555050        0.31302978500843
C            6.90291197312433        1.36163707980237        1.26730832376346
C            6.27737768773581        1.86886327195105        2.39831225075866
C            7.00204243617108        2.71965232772497        3.21051816202941
C            8.32160557945059        3.05904681044076        2.91600546245711
C            8.95655542691642        2.54119829125510        1.80476006059602
C            8.24928180411288        1.68252670167301        0.97245757928508
C            8.58576644443270        0.96372107527611       -0.22413722866293
C            9.73563440094403        0.87839079480543       -0.99938791117561
C            9.71548583743113        0.08514931996112       -2.12922859598785
C            8.56318943070227       -0.60703491825703       -2.49854955131632
C            7.40754800973573       -0.53846718954859       -1.74458903183599
C            7.42768001042846        0.24052380884411       -0.59543151749166
C            4.01630983974887        0.81009383578298        0.31006906895205
C            2.72612033368995        0.32512990868607        0.24414333069465
C            2.54696949611905       -1.04436166794221        0.09729725615422
C           -0.24204584990290       -0.20384916429617       -0.86779172764211
C           -1.52273212792851        0.31074029984375       -0.87410891939440
C           -4.18570003204241        1.87602929335334       -0.37810043464994
C           -3.53103922070581        2.82152266576960        0.42728561061352
C           -2.68660046300206        2.40183152762066        1.59872362378602
C           -3.66600931307517        4.17916820824676        0.17459092424072
C           -4.43597972372947        4.64757270130694       -0.87798001640038
C           -4.59010212915989        6.11545555787720       -1.14102726812796
C           -5.08573989724661        3.71452870000919       -1.67430471722400
C           -4.97775862571667        2.35324650425012       -1.43728639775151
C           -5.68753634726138        1.40162572403137       -2.35630672080801
C           -5.28887285378466       -1.82233358712516       -0.70325827279871
C           -4.31311465662234       -2.10196790419934       -1.81288562470405
C           -6.31638945445868       -2.72828523436654       -0.49519324160731
H           -8.99660722389112       -3.58375498890058       -0.18573668682155
H           -7.95530464406517       -4.52721898115443        0.87437727243547
H           -8.98821592151351       -3.26055082715224        1.55217399886860
H           -7.89053045577753       -1.22793108425913        2.06588485886953
H           -5.27630628104657        0.61512341413946        2.71524160864926
H           -5.90319785390437        1.63385794923882        1.42498975205546
H           -7.01687927222468        0.83960135325585        2.54883816836968
H           -2.95075848879742       -1.73194665946234        1.39327133957301
H           -0.65267763470825       -2.59214412883045        1.49076337395814
H           -0.16977853179152       -4.12834801000895       -0.31911396200315
H            0.89108880101543       -6.34518982645260       -0.45684116904958
H            3.32477910732769       -6.59598733158951       -0.33094404526367
H            4.78544823559480       -4.61428736842131       -0.09579358121301
H            5.80206130739587       -2.08043847575027        0.15701146501121
H            5.26042160695771        1.60011349908406        2.64171504609567
H            6.53694402828135        3.12946960392497        4.09557354651973
H            8.85354537662824        3.73060466003086        3.57411565485030
H            9.98338657953577        2.79379900672800        1.58493705227767
H           10.62466065053939        1.42530114310944       -0.72182981507797
H           10.60025773493532        0.00332510839840       -2.74375247375497
H            8.57391222501444       -1.20887956442445       -3.39594759967210
H            6.51536437001938       -1.06723983996086       -2.04557268328020
H            4.18630608397313        1.87317193915212        0.39217125701193
H            1.88522171649520        0.99861841855949        0.30203079304957
H            0.51389796171601        0.19936247401225       -1.52587353966737
H           -1.75525937292674        1.13678317607876       -1.53137976965078
H           -1.64033562651836        2.33443203788252        1.29938576393375
H           -2.75803114870662        3.13586433872493        2.39974917224332
H           -2.99037678812348        1.43240177023798        1.98094230514855
H           -3.15778538468257        4.88664525011688        0.81667258649857
H           -4.50177729742424        6.32721811603700       -2.20545039497704
H           -3.83798061547858        6.68896357414242       -0.60403480986374
H           -5.57511015414329        6.45243416426858       -0.81500663228959
H           -5.69577612568310        4.06108981228795       -2.49804824092907
H           -6.21830384012527        0.64110891741403       -1.78933436161067
H           -6.39760435889283        1.93323865459934       -2.98606817171474
H           -4.97233146615989        0.89575108020630       -3.00473241690377
H           -4.80836220946837       -2.62215044226758       -2.63111834009021
H           -3.50775884440863       -2.74070087448110       -1.44936158812382
H           -3.86988087841756       -1.18713859548007       -2.19341404764161
H           -6.38334967656811       -3.60544901941973       -1.12538441496938
