92
 energy: -130.815822498428 gnorm: 0.000056431435 xtb: 6.7.1 (edcfbbe)
C           -9.05268483166762       -2.89439155506041        1.82879467248369
C           -7.90493907020280       -2.05869943259596        1.34946656435933
C           -7.67132350587489       -0.79829477438000        1.89080143019196
C           -6.62191444031668       -0.00716464938746        1.46143634593848
C           -6.40681833700678        1.32889235034487        2.10759131305898
C           -5.75200577334244       -0.45501312530016        0.44159744248858
B           -4.56559261198046        0.44834518314903       -0.05849723345343
C           -3.14260143785080       -0.12367786255331       -0.07900194876397
C           -2.76465624362038       -1.23899784465598        0.71701874217426
C           -1.49979395110954       -1.75730876032665        0.69882295552949
C           -0.50332751075158       -1.18158707352038       -0.11324125862720
N            0.78699589004007       -1.69959735365463       -0.12948443049594
C            1.11610012799379       -3.04373689857315       -0.22797855232639
C            0.29081904864889       -4.14172134095273       -0.40035529216781
C            0.88339561106658       -5.39288519165474       -0.49844373927155
C            2.26724409594926       -5.54359160987719       -0.43461358436206
C            3.10081826147952       -4.44915095130934       -0.29697541486087
C            2.52922901943236       -3.18363061748695       -0.20337857142741
C            3.06645508567873       -1.86327544733556       -0.10135958358756
C            4.35811736590368       -1.36280920102368       -0.03041546005017
C            4.53671173790807        0.00941686520502        0.11132026658113
N            5.82984588886041        0.53557087777738        0.17979249363698
C            6.29543774964740        1.43260547135010        1.12213215884985
C            5.64902107760308        1.97212858590642        2.22606799785713
C            6.36576972114706        2.83146705707652        3.03893900456019
C            7.69681186365823        3.14332494063892        2.77247879340351
C            8.35526122713532        2.58621860107614        1.69154439075149
C            7.65619612077077        1.72111353951355        0.86169334111628
C            8.01968718999736        0.95877494609832       -0.30245619973112
C            9.18975032687391        0.84103137679085       -1.03927421794005
C            9.19207296320265        0.01766128710967       -2.15038338795493
C            8.04228744669311       -0.66609250746414       -2.53853979086074
C            6.86457738278894       -0.56326280240842       -1.82052430127278
C            6.86411564071985        0.23847600235745       -0.68700020679620
C            3.43077050878391        0.87496821663519        0.19772953466730
C            2.13883361796802        0.39190193068893        0.11820603111156
C            1.95123878826710       -0.97313099232597       -0.05326361716318
C           -0.84416867032539       -0.06988343623331       -0.90801947874664
C           -2.11687175917551        0.42874772433596       -0.89373775064471
C           -4.80478304296762        1.92831198864546       -0.53601851772633
C           -4.08317393645882        3.00901518340634        0.00782422272318
C           -3.05005205363748        2.80888905565430        1.07960252617802
C           -4.32686856796702        4.30598892537280       -0.41832357448237
C           -5.27306127063754        4.58814837608991       -1.39278852102636
C           -5.52880351918786        5.98951620349575       -1.85803587014091
C           -5.98622524644789        3.52342434621929       -1.93571189711502
C           -5.76470829234253        2.22021848051959       -1.53119123176771
C           -6.54637244646680        1.11504894568965       -2.17657860035135
C           -5.99301534286954       -1.73219080919154       -0.10316780431136
C           -5.13754511071515       -2.29504611247896       -1.20196314151199
C           -7.05242646367522       -2.50370332629120        0.34890272317358
H           -8.95689639650492       -3.92229520327505        1.48630927493580
H           -9.10561840869699       -2.88792169108928        2.91671475828568
H           -9.99329451960062       -2.49242353264389        1.44869861089354
H           -8.32494426247394       -0.43505859438158        2.67348820826373
H           -5.40623802511869        1.38881517036610        2.53222015967879
H           -6.49771021849807        2.12683404011911        1.37222117723117
H           -7.13375749698035        1.49835339675576        2.89920821647802
H           -3.50306612263935       -1.67336259960979        1.37640154652785
H           -1.23505146931865       -2.58095120723759        1.34744828559352
H           -0.78025561155637       -4.03279447209711       -0.47215403720191
H            0.25943368795826       -6.26381462973640       -0.63179191454846
H            2.69328501716683       -6.53368516415756       -0.50664683746388
H            4.17319748534719       -4.56955456985898       -0.26676681997528
H            5.20908312225742       -2.02577173239885       -0.04564692348186
H            4.62462225999354        1.72134632945569        2.45410841490970
H            5.88307991412396        3.26653056995452        3.90165426465273
H            8.22222565794840        3.82142826569543        3.42855489747040
H            9.39282367960508        2.81290516573414        1.49803074995021
H           10.07611448529025        1.38599835200512       -0.75163917681421
H           10.09360635120327       -0.09007528853688       -2.73522200949560
H            8.06898512802015       -1.28679016493942       -3.42206519797518
H            5.97344004834033       -1.08057745074316       -2.14174446725100
H            3.60233264548365        1.93481300003606        0.29988181963104
H            1.30080075933718        1.06687295668074        0.19042052337849
H           -0.09874950572175        0.34806883065268       -1.57053737888678
H           -2.36562432876174        1.25856353525048       -1.54046722186937
H           -3.09048957804116        3.62231294594667        1.80289364983129
H           -3.19616477661101        1.86284348096989        1.59325948584919
H           -2.05117996827921        2.79912429025657        0.64187136639009
H           -3.76555576414936        5.11850306543598        0.02513719383671
H           -5.34959896537936        6.07300279005537       -2.93016334345204
H           -4.88381033229629        6.69640350384811       -1.34136432712173
H           -6.56723361600021        6.26638432716320       -1.67458996763222
H           -6.72687439805326        3.72481423562833       -2.69900758879933
H           -5.87402500379435        0.39592118235323       -2.64167157441871
H           -7.13368578172506        0.57907798800230       -1.43267898252887
H           -7.21831072128180        1.50774568903672       -2.93690937138092
H           -5.74769097692084       -2.85373213527154       -1.91044707801296
H           -4.39484380133364       -2.97820306235783       -0.78822627605647
H           -4.60650434150461       -1.50668203602300       -1.72784687296824
H           -7.21950931174231       -3.47758105526145       -0.09333804721282
