92
 energy: -130.910952275496 gnorm: 0.000122945487 xtb: 6.7.1 (edcfbbe)
C           -8.88808165514961       -3.02918490281753        1.98757155279514
C           -7.80189405232695       -2.14500371632988        1.45228676259565
C           -7.55444011332549       -0.90245584673734        2.02205157851996
C           -6.57049856084240       -0.06033070831440        1.53176931147886
C           -6.34052187484802        1.25870299028408        2.21076465822113
C           -5.77578974794045       -0.45127966117676        0.43792450042944
B           -4.60639009171902        0.46397158050415       -0.07322513568501
C           -3.15785096691710       -0.13083424020608       -0.10056920471835
C           -2.78255239701580       -1.17552166182317        0.75251232107969
C           -1.50238713357834       -1.69024442370585        0.75209317301454
C           -0.55155610939220       -1.18862274885037       -0.13298672890549
N            0.75067648367715       -1.71300300281839       -0.14343247462872
C            1.08277207477301       -3.05087965561836       -0.21847509776524
C            0.25973593526767       -4.15946644078800       -0.36453127600080
C            0.85897481988068       -5.40189502305356       -0.44269417639871
C            2.24419841731061       -5.54805982181187       -0.38619197206010
C            3.06954095262898       -4.44802509540576       -0.26564129778452
C            2.49012124499894       -3.18771864147411       -0.18568310034587
C            3.02472507751763       -1.85913190435893       -0.08265830833790
C            4.31538891907831       -1.35942875396137        0.01032033360421
C            4.48941813176532        0.01301128864591        0.10775789625911
N            5.78792295741357        0.55099748676203        0.18181081315323
C            6.25051020758502        1.42027585403989        1.14676672213311
C            5.60022493375751        1.93032779936954        2.26244740176882
C            6.30843295802512        2.77912404115126        3.09103453659730
C            7.63586425553130        3.11350173843516        2.82776309585606
C            8.29503391673357        2.59272688551865        1.73208810572694
C            7.60456694161423        1.73611600858648        0.88363428006262
C            7.96644343471672        1.01519198453357       -0.30428472102042
C            9.13375914786453        0.92530114063312       -1.05242147915341
C            9.13744886685376        0.13047939301575       -2.18134414198182
C            7.99209207026394       -0.55914754303362       -2.57628710970803
C            6.81931372757978       -0.48583469785847       -1.84971493261313
C            6.81504903643464        0.29511716715886       -0.70175827244464
C            3.38548903179901        0.87389260253763        0.13709032355093
C            2.09500718290418        0.39074724683258        0.06583882414569
C            1.91556661009682       -0.98016095807474       -0.06457588751477
C           -0.90366772398236       -0.16137816484351       -1.00474472320417
C           -2.18035407061796        0.36145049194185       -0.97344020031272
C           -4.81261953459436        1.94573809080170       -0.55071207022003
C           -4.08652868311192        3.00459464452860        0.01291874105447
C           -3.13923431962960        2.80100633662316        1.16308752880949
C           -4.25020508214649        4.30260998820642       -0.45519003541620
C           -5.12021614060767        4.59582996890256       -1.49077130877313
C           -5.28384988435275        5.99397673323055       -2.00682571877696
C           -5.84126675736667        3.54827801842527       -2.05058495362246
C           -5.70586073903910        2.24766043662079       -1.59584345367448
C           -6.50017762054732        1.15982650564846       -2.25855941946491
C           -6.03137049436482       -1.70363953318008       -0.13904223910959
C           -5.28084208441248       -2.19472289800625       -1.34591499931920
C           -7.03209666517465       -2.52431221873251        0.36611626140622
H           -8.76393037896462       -4.05252100840074        1.64046031721073
H           -8.88891883072430       -3.02295517151640        3.07629090079484
H           -9.86190537192939       -2.67042551535709        1.65121717813440
H           -8.14755127137846       -0.58624562688711        2.87006877519520
H           -5.36961258400259        1.26870309234222        2.70420100608512
H           -6.35275929448342        2.06986788398417        1.48654159263935
H           -7.10726399685310        1.44448505377174        2.95983412537875
H           -3.51247700280632       -1.57700261546658        1.44088323588555
H           -1.22639302524294       -2.47596172900396        1.44036885280723
H           -0.81296626356302       -4.05594577336976       -0.42489970887664
H            0.24020146877727       -6.28051582586964       -0.55337375857639
H            2.67378668346670       -6.53714664191130       -0.44763217371872
H            4.14320842171425       -4.55965870242636       -0.23829232323620
H            5.16810630666611       -2.02087880197438        0.01760505356590
H            4.57694422388569        1.66504824447241        2.48209942848078
H            5.82384028439336        3.19105636968851        3.96457632659078
H            8.15442610544090        3.78354199423857        3.49799091016031
H            9.32767697665936        2.84158288267738        1.53658397076161
H           10.01788238942698        1.46950522330704       -0.75464784540105
H           10.03616159241277        0.04487499775161       -2.77477262002614
H            8.02207673997290       -1.16256176547152       -3.47219314456891
H            5.93263531692396       -1.01221842075440       -2.17050527578835
H            3.55735300388503        1.93726627661587        0.21100928551101
H            1.25363210165440        1.06480818816226        0.10982891491222
H           -0.17354685682289        0.21457542845783       -1.70677595230828
H           -2.43939974345408        1.16295237047543       -1.65055115313533
H           -3.39224349497657        3.47807538470539        1.97877136830070
H           -3.16904131571040        1.78152909260531        1.53304364766012
H           -2.11915710302890        3.02704401770739        0.85153791121550
H           -3.68209826450414        5.09993674145658        0.00594022901167
H           -4.85221551353314        6.07888970557429       -3.00484241965763
H           -4.78812310960773        6.71064801852255       -1.35614445895364
H           -6.33890272083319        6.25505207010170       -2.07835107853649
H           -6.52801560229510        3.75824026886943       -2.86004528758412
H           -5.83848408892700        0.46855107749612       -2.77824678883082
H           -7.05992835265327        0.59081409727574       -1.51979534581255
H           -7.19693788107026        1.57807098381248       -2.98180777032933
H           -5.97671270063260       -2.38438069604235       -2.16340821658409
H           -4.77689153164437       -3.13402045158585       -1.11816338665968
H           -4.54046867883805       -1.47490983740283       -1.67908526369002
H           -7.20988526537037       -3.48249474711931       -0.10441017086204
