  44
        -87.65704655
 O         -2.4360493511        0.4893625416       -2.5463618166
 C         -2.7005999959       -0.2107403614       -1.5757789623
 O         -3.9579305368       -0.6966681530       -1.4898843251
 C         -4.3549453352       -1.4378541275       -0.4301017348
 C         -5.6571490850       -1.9337215155       -0.4314963367
 C         -6.1025086041       -2.6736612957        0.6425955388
 C         -5.2638675047       -2.9246548544        1.7258366046
 C         -3.9778601945       -2.4366746116        1.7330715491
 C         -3.5028783274       -1.6875176185        0.6511484947
 C         -2.1485935071       -1.1685697609        0.6039293265
 O         -1.4087143354       -1.4008710570        1.6712974566
 C         -1.7509989185       -0.5118717352       -0.5338723947
 C         -0.3513977443       -0.0015459213       -0.8209729047
 C          0.7338465289       -0.9906167237       -0.5135562748
 C          0.6557348011       -2.3354118643       -0.3247914454
 C          1.9143427001       -2.9562394721       -0.1615738044
 C          2.9329539667       -2.0644207153       -0.2505555318
 Br         4.7679944163       -2.4281961689       -0.0978405662
 S          2.3833590036       -0.4485737237       -0.5359461097
 C         -0.0908664811        1.3514655869       -0.1817788105
 C         -0.3290293607        2.5257977470       -0.8526382894
 O         -0.8918480481        2.6318716858       -2.0453245518
 C          0.0812281594        3.7665935434       -0.2285926208
 C         -0.0517544161        5.0075109602       -0.8611244523
 C          0.3735981856        6.1536405901       -0.2310014443
 C          0.9371604933        6.0864415422        1.0410312131
 C          1.0731327136        4.8753875851        1.6846078289
 C          0.6446709565        3.7103948435        1.0513684506
 O          0.7702640490        2.5429247270        1.7213241691
 C          0.4097544723        1.3639561213        1.1667704364
 O          0.5235664538        0.3650546413        1.8667226865
 H         -6.2900837012       -1.7240520714       -1.2784289529
 H         -7.1105472798       -3.0588478825        0.6429759748
 H         -5.6255450690       -3.5033376413        2.5614326734
 H         -3.3105138768       -2.6185316870        2.5600601066
 H         -0.5648248673       -0.8710621721        1.6939057824
 H         -0.3149897376        0.1522884409       -1.9109273853
 H         -0.2665791937       -2.8863602864       -0.2983348182
 H          2.0527272507       -4.0070570560        0.0144255775
 H         -1.3601302771        1.8103109042       -2.3465922547
 H         -0.4890742574        5.0347382976       -1.8461963962
 H          0.2704565222        7.1087573257       -0.7216702412
 H          1.2690459906        6.9895632534        1.5296885292
 H          1.5033619874        4.8008109475        2.6701739192
  44
        -87.65633820
 O         -2.0417395524        0.8867278541       -2.5449618401
 C         -2.2728643695        0.1670539330       -1.5790121314
 O         -3.4981273537       -0.3933804869       -1.5048395927
 C         -3.8556637396       -1.1641145470       -0.4515538028
 C         -5.1242270665       -1.7400490479       -0.4665354723
 C         -5.5313204880       -2.5120083860        0.6002334065
 C         -4.6873298711       -2.7165591764        1.6890067029
 C         -3.4344665339       -2.1491079264        1.7098046952
 C         -2.9989575605       -1.3651198579        0.6361836342
 C         -1.6798126574       -0.7630503323        0.6029429324
 O         -0.9372837666       -0.9470150667        1.6772073234
 C         -1.3149692157       -0.0801233971       -0.5311323446
 C          0.0614123327        0.4947284578       -0.8117380929
 C          1.1853049166       -0.4544243000       -0.5137569165
 C          2.5100685352       -0.1632143173       -0.3995386374
 C          3.3271939728       -1.3027033459       -0.2404380324
 C          2.6019735361       -2.4501118551       -0.2615269260
 Br         3.2527086609       -4.2033423972       -0.0924020351
 S          0.9081821930       -2.1663480520       -0.4724204376
 C          0.2612944530        1.8554758611       -0.1695392853
 C         -0.0370462934        3.0148619294       -0.8432601071
 O         -0.5967073496        3.0890475952       -2.0397843910
 C          0.2981269649        4.2783935892       -0.2189059561
 C          0.0964873683        5.5088129092       -0.8536583964
 C          0.4488141176        6.6786014935       -0.2217597832
 C          1.0052369297        6.6455726003        1.0547201659
 C          1.2092272494        5.4449216802        1.7000312312
 C          0.8557610062        4.2561830050        1.0645872884
 O          1.0473452511        3.0975771711        1.7348299492
 C          0.7495249022        1.8974955773        1.1828030085
 O          0.9081165741        0.9113070909        1.8902630109
 H         -5.7620057480       -1.5664587769       -1.3181795580
 H         -6.5133437530       -2.9593710310        0.5898463278
 H         -5.0187778731       -3.3223368354        2.5179664588
 H         -2.7628760474       -2.2958305413        2.5404190059
 H         -0.1241141961       -0.3710796996        1.7071913083
 H          0.0891546934        0.6519282485       -1.9018283787
 H          2.9007683570        0.8382135448       -0.4165156095
 H          4.3942814943       -1.2721444522       -0.1184188784
 H         -1.0304759322        2.2465017490       -2.3387948183
 H         -0.3341284949        5.5092281358       -1.8421710404
 H          0.2936949644        7.6257406094       -0.7146201443
 H          1.2777629902        7.5671110018        1.5456694309
 H          1.6348346658        5.3970856594        2.6892646184
