  62
       -101.97283596
 O         -0.1508200663       -4.2386004187        1.0032601648
 C         -0.8497688270       -3.3662273037        0.5356415519
 C         -2.2431100907       -3.6334477784        0.0960883446
 C         -2.7692708661       -3.1409380798       -1.0993160355
 N         -4.0139052432       -3.3777650013       -1.4689262655
 C         -4.7424309062       -4.1370302736       -0.6699542429
 N         -4.3375891897       -4.7007066197        0.4541406986
 C         -3.1004449912       -4.4491303986        0.8378317413
 C         -0.3796246886       -1.9709283599        0.3511679968
 C         -1.2632011793       -0.8970205200        0.3976816611
 C         -0.7852960785        0.3997144148        0.2297144214
 N         -1.6633092448        1.4828842183        0.2895891205
 C         -2.8869200289        1.5722943383       -0.3535065552
 C         -3.4946812293        0.6879568425       -1.2320845988
 C         -4.7244984805        1.0382852591       -1.7567239494
 C         -5.3360353924        2.2460493496       -1.4309087387
 C         -4.7224953994        3.1443951764       -0.5806190022
 C         -3.4883581069        2.8112846413       -0.0386143687
 C         -2.5849108011        3.4936256911        0.8461117244
 C         -2.6373050904        4.7174409922        1.4998755731
 C         -1.5900698557        5.0703110136        2.3272854904
 C         -0.5106808374        4.2119121821        2.5195001189
 C         -0.4363926178        2.9893507883        1.8785280285
 C         -1.4716255429        2.6422273254        1.0231824889
 C          0.5732444108        0.6143005218        0.0138591513
 C          1.4606028190       -0.4585952016       -0.0156162047
 N          2.8219582076       -0.2338331355       -0.2190464504
 C          3.3767241147        0.5754391263       -1.1957432757
 C          2.7592628653        1.2817627873       -2.2173130937
 C          3.5631939067        1.9933809253       -3.0880880296
 C          4.9495509796        1.9989341799       -2.9584738539
 C          5.5712733531        1.2748692422       -1.9607626702
 C          4.7841728110        0.5526309229       -1.0739971877
 C          5.0868606746       -0.3082809742        0.0360501123
 C          6.2737100770       -0.6980286903        0.6423592566
 C          6.2120212056       -1.5395244692        1.7350762930
 C          4.9872636005       -1.9781351477        2.2321831573
 C          3.7930255262       -1.6030234566        1.6458362863
 C          3.8508252130       -0.7785531103        0.5320790451
 C          0.9802632915       -1.7528129152        0.1576458071
 H         -2.1650315011       -2.5606277729       -1.7861847608
 H         -5.7650419172       -4.3225830364       -0.9707869139
 H         -2.7740890474       -4.8959131413        1.7679953040
 H         -2.3098859470       -1.0532012305        0.6091862923
 H         -3.0270006733       -0.2426030382       -1.5128203966
 H         -5.2173635617        0.3584477361       -2.4353154547
 H         -6.2982782677        2.4833689048       -1.8592749000
 H         -5.1865432544        4.0891484303       -0.3412027125
 H         -3.4843785323        5.3727277105        1.3644189300
 H         -1.6090843676        6.0182177478        2.8437713214
 H          0.2850639765        4.5044929118        3.1882958256
 H          0.3955953404        2.3250349039        2.0571711952
 H          0.9417753161        1.6191191883       -0.1223943775
 H          1.6871503848        1.2691857066       -2.3443357253
 H          3.1046257895        2.5540807348       -3.8890350174
 H          5.5426580303        2.5693812910       -3.6573516630
 H          6.6468509169        1.2621605443       -1.8713047143
 H          7.2213127656       -0.3439277025        0.2658266889
 H          7.1228350068       -1.8576091109        2.2199029107
 H          4.9684398329       -2.6237388716        3.0974506181
 H          2.8510257133       -1.9373063790        2.0528995386
 H          1.6475202833       -2.5994901981        0.1165547308
