113
 energy: -164.735684808983 gnorm: 0.000116457948 xtb: 6.7.1 (edcfbbe)
C            2.36625836812898       -0.10508824667906       -5.07317128933986
C            1.72474144905521        0.39377229909353       -3.81764299157191
C            1.28462082605848        1.71100361545265       -3.70793525968351
C            0.70519437160520        2.17087456063626       -2.54712816944892
C            0.56155574640289        1.32817120178793       -1.43873948951919
C            0.99980200469262       -0.00126629633570       -1.53675319686694
C            1.56042143140809       -0.44339244777208       -2.72477351668910
C            0.78068642851371       -0.98244129824027       -0.42005762079832
C           -0.45178378668927       -1.83170631644675       -0.71431551537874
C           -1.56179230016217       -1.24177730092990       -1.29212691108242
C           -2.77037982294509       -1.90837708233795       -1.35892296446103
C           -2.89411082300160       -3.18703528470140       -0.80805047389155
C           -4.22253274381807       -3.80954055798058       -0.68038481483596
C           -4.45595162781034       -5.09837877022782       -1.14344332291377
C           -5.71214731023659       -5.66853684562492       -1.04556164605343
C           -6.75271107319333       -4.95145533983164       -0.47934318866023
C           -6.52983477754308       -3.67153466070976       -0.00455351054438
C           -5.27039408215286       -3.08909050444082       -0.08800510250447
C           -5.04626590053353       -1.73765410719619        0.45999176836716
C           -3.99737274444060       -1.48984344606086        1.34345961425514
C           -3.76608060879759       -0.21393076629156        1.82006114126437
C           -4.58249778038594        0.83487062088740        1.42828590105355
C           -5.64278337624411        0.59515492704291        0.57091284827437
C           -5.87585731618321       -0.68227170322771        0.09309725356633
C           -1.77029559639321       -3.82122949127343       -0.32115117949287
C           -0.53041552220676       -3.15898500540274       -0.27248328271838
C            0.61671771475846       -3.88642790703547        0.22872920065750
O            0.52017555792638       -5.06720229974084        0.66164564023987
C            1.88743451268719       -3.20301265450706        0.15973163143261
C            3.06268342594921       -3.91423203629349        0.47479511714116
C            4.28915722712330       -3.30580745099033        0.42100467518998
C            4.41266833115466       -1.96112026807532        0.04716685487741
C            5.72110979514633       -1.30908945307493       -0.02049362604448
C            6.81513019417805       -2.01843685207077       -0.52068107619898
C            8.05980157645655       -1.43432126337566       -0.64063187373456
C            8.24145881608678       -0.11261801605736       -0.26655602552268
C            7.17043641742268        0.60619091082628        0.23098888266482
C            5.91369724386256        0.02763720372895        0.36945301387157
C            4.83547247218520        0.84257571189802        0.96031812862493
C            4.13073751510964        0.40440745966596        2.07894908428372
C            3.13736817938662        1.18877231160440        2.63216796043037
C            2.82829121749088        2.42009472577344        2.07724671632113
C            3.52820024853632        2.86691969141513        0.97020370912173
C            4.52887021050122        2.08787776298214        0.41906134500308
C            3.24446099528599       -1.26272580181802       -0.26858077794831
C            2.00123630770235       -1.85232863986623       -0.20338328689149
C            0.42554759636032       -0.28796132809641        0.87873435918184
C            0.44104146858392       -0.99219001008885        2.07285411018244
C            0.01281140527870       -0.43060126416632        3.26565860198407
C            0.01533600732297       -1.22876757002859        4.53071134540694
C           -0.44517532493832        0.88577935609525        3.25052119458804
C           -0.46278287839280        1.61038025310145        2.08153741665016
C           -0.03049726746886        1.03725990731963        0.87969174832337
N           -0.03043946343480        1.78568209990040       -0.27835153275304
C           -0.74906395852632        3.01297493138699       -0.28615390746181
C           -2.13393795895127        2.98231172373747       -0.35221014083264
C           -2.85444148966411        4.16349355260465       -0.35110220553508
C           -2.21874543319402        5.39815022632857       -0.28465832292139
C           -2.97387215761562        6.71720328611665       -0.28158076186008
C           -4.49055789276775        6.52822521970562       -0.36888993071963
C           -2.52454952067072        7.55159952077483       -1.48948186235828
C           -2.65825577726570        7.47011738428100        1.01876359073635
C           -0.82660337649377        5.40595843381771       -0.21461564055805
C           -0.09487559790494        4.23480866368671       -0.21340996881509
H            2.04061297385511        0.47358118038644       -5.93435217408615
H            3.45060168259934       -0.01644695905274       -4.99533482429184
H            2.12880931488487       -1.15349036710803       -5.23711245724430
H            1.39009365378125        2.38150954516625       -4.54822036447077
H            0.35324559278494        3.18934608541237       -2.49335497249684
H            1.87378676092068       -1.47514274528502       -2.79194409926369
H           -1.49447651517483       -0.23632388504011       -1.68264299887685
H           -3.62555437567302       -1.42893970724073       -1.81014233714701
H           -3.64339316818760       -5.64679628905894       -1.59729568154257
H           -5.88042841264236       -6.67017170592163       -1.41293960586012
H           -7.73633660116853       -5.39114612917737       -0.40195976609284
H           -7.33507631726943       -3.11865199059759        0.45857515399152
H           -3.36081643383742       -2.30363071871831        1.65715367027439
H           -2.94042784627829       -0.03448478701444        2.49329680191659
H           -4.39406146503286        1.83363566552051        1.79573910591894
H           -6.28905014201568        1.40703462483417        0.26801756248786
H           -6.69331774911528       -0.86268405500165       -0.59092168315704
H           -1.82372170696199       -4.82115719477748        0.08363889775174
H            2.96158030648995       -4.94881015539434        0.76611088446513
H            5.17064136894047       -3.86686613219957        0.69639182496157
H            6.67261310231801       -3.03946746041533       -0.84346927562266
H            8.88817759611741       -2.00611566557133       -1.03318777749545
H            9.21117650528656        0.35363984641041       -0.35979707276245
H            7.30869895530135        1.63215934632935        0.54321518457988
H            4.37055657966241       -0.55456326442603        2.51414077652407
H            2.59906377988056        0.84095247727535        3.50117283449727
H            2.04874746364548        3.02871702696328        2.51199209747783
H            3.30418544808844        3.83189240948566        0.53649734539608
H            5.06842805976210        2.43491506495133       -0.45125908277442
H            3.31101556723247       -0.23179800504491       -0.58295702129753
H            0.78633901982677       -2.01428857573466        2.07423522511865
H            0.77431294832120       -2.00629052531586        4.49560051258061
H            0.19456853273841       -0.59164527154649        5.39440645309596
H           -0.95333495381630       -1.71204462916156        4.66589918326541
H           -0.78369880233089        1.34596944024661        4.16783732578624
H           -0.80757071386410        2.63313653557165        2.08967214568290
H           -2.64491876486206        2.03097481249082       -0.39508943043394
H           -3.92834240497390        4.09904168972514       -0.40421222406019
H           -4.76990609502306        6.01741801926004       -1.28745135497109
H           -4.97628665332697        7.50163433165063       -0.36612836533193
H           -4.86579023131366        5.96520070388572        0.48253497738763
H           -1.46283569735926        7.77757361124318       -1.44519357793888
H           -2.72097657578995        7.01197179980291       -2.41366586162617
H           -3.07058801021280        8.49179488784473       -1.51680050994311
H           -2.95273370763324        6.87407589550945        1.88011748868051
H           -1.59812092388913        7.69188318443277        1.10371641188130
H           -3.20496932002212        8.40987745246588        1.04733212571006
H           -0.29331653942255        6.34228203491994       -0.15548258431745
H            0.98260159986185        4.25784696398893       -0.14965559032094
