55
 energy: -86.198187824393 gnorm: 0.000058411373 xtb: 6.7.1 (edcfbbe)
O           -5.15697574267482        0.07345483141111       -0.06316530606756
C           -3.88617965137825        0.05433532335312       -0.02403688346792
C           -3.14404170454538       -1.18343479432358       -0.05420540852497
C           -3.86421400416243       -2.39606531824378       -0.11531252036883
C           -3.21200379597033       -3.60324472886953       -0.13878025654647
C           -1.82258674707039       -3.64841074567614       -0.10180511088535
C           -1.10429730442145       -2.46380457313656       -0.04448646492322
C           -1.74427613339018       -1.23739470972576       -0.02108930890471
C           -0.87142514266049        0.01115129253800        0.03030870324460
C           -1.71023267439518        1.28166947241602        0.09828521944618
C           -1.03705254717880        2.48712503824306        0.18761785019004
C           -1.72293663954456        3.69089507038048        0.24219997917427
C           -3.11300956177103        3.68710801961018        0.20304718274377
C           -3.79786831669354        2.50111355031395        0.11490591005595
C           -3.11088497928231        1.26907584862515        0.06172539085420
C           -0.05043643958215        0.06036046241734       -1.23113798680302
C           -0.70663952389476        0.13159925463968       -2.45311415634797
C           -0.00404139519917        0.18006797604113       -3.64067925885436
C            1.38644072893538        0.15611294704318       -3.61684837643347
C            2.05902452628142        0.08546848470239       -2.41879213443310
C            1.35370753141899        0.03660621888333       -1.20630511382672
N            2.03528055945918       -0.03404778369196       -0.01071110408790
C            3.46455130366209       -0.04988919164016       -0.03180465333834
C            4.16772933827038        1.14721310002051        0.01257078842646
C            5.55166041555277        1.12781416938469       -0.01239853029889
C            6.23025128669295       -0.07815552441126       -0.08101198017391
C            5.52512680602469       -1.26994247574082       -0.12444273604045
C            4.14102048162800       -1.26111394471759       -0.09963482951066
C            1.38581876178354       -0.08321624754096        1.20354658999990
C            2.12246032358028       -0.15601130452660        2.39605337472557
C            1.48087175307123       -0.20251601951854        3.61223867281240
C            0.09152792122811       -0.17691832278639        3.67468909228745
C           -0.64163619412894       -0.10684481980900        2.50678324809402
C           -0.01713207703091       -0.06049951000587        1.26723433903221
H           -4.94274026656703       -2.33121555875505       -0.14164316725550
H           -3.78449053380604       -4.51887004766342       -0.18505113670559
H           -1.30380329450382       -4.59470825046701       -0.11866220295909
H           -0.02389614477051       -2.49506876329869       -0.01771458589385
H            0.04383259783285        2.48632829335742        0.21498490542547
H           -1.17874389413159        4.62027643529073        0.31265496686107
H           -3.66041747219504        4.61823786325339        0.24275233112213
H           -4.87772703078058        2.46833920849895        0.08387726334099
H           -1.78661307611608        0.14859242450786       -2.45750949738073
H           -0.53272664265317        0.23567744828207       -4.57945865602731
H            1.94382482981259        0.19311784457722       -4.54023546023501
H            3.13719845382234        0.06682440451564       -2.40872207027904
H            3.62990261359484        2.08189754438372        0.06481954102970
H            6.09882978058805        2.05758706293851        0.02146492152100
H            7.30938225246034       -0.08911826752176       -0.10099273400488
H            6.05159657253015       -2.21068088161794       -0.17793413330042
H            3.58305640720665       -2.18475708241959       -0.13377157214728
H            3.19998167940990       -0.17528983730389        2.35585926953864
H            2.06176096137690       -0.25833296039236        4.52006649890749
H           -0.41231187627760       -0.21233076033176        4.62801029488728
H           -1.72117198577088       -0.08691739120055        2.53972818370083
