55
 energy: -86.277983363464 gnorm: 0.000039941137 xtb: 6.7.1 (edcfbbe)
O           -5.10322690430635        0.09334644021444       -0.18959898418633
C           -3.88044787264660        0.06559168746596       -0.08972500329630
C           -3.13426030448533       -1.20426868744473       -0.08450454356533
C           -3.85782652871781       -2.39937856581998       -0.15077974322217
C           -3.21351219325230       -3.61648947866088       -0.14492505254632
C           -1.82694001679879       -3.65440045296906       -0.07255819309551
C           -1.10354190772390       -2.47963825870159       -0.00903783266349
C           -1.74103282515508       -1.24310320371923       -0.01284180772320
C           -0.89060325348660        0.00331694560518        0.04192127371460
C           -1.69381230518397        1.28004356941962        0.10882892048464
C           -1.01026848457784        2.48590179191308        0.22786871860493
C           -1.68918333225143        3.68743170149880        0.27936338234270
C           -3.07619482259197        3.70836182330435        0.20869508425736
C           -3.76572767486338        2.52229345460515        0.08866891119534
C           -3.08738666630387        1.30024176888541        0.03750990176344
C           -0.06150388177265        0.05012006711735       -1.23190510170472
C           -0.72574802453170        0.11638950424228       -2.44732812684525
C           -0.03349723314227        0.16235451953690       -3.64321484569329
C            1.35121314687916        0.14013852690446       -3.62180600953331
C            2.02824868648616        0.07433590879795       -2.42164234459797
C            1.33551998451977        0.02902996616311       -1.20743003690893
N            2.02916212039783       -0.03681663857813       -0.01070296709348
C            3.45629235272841       -0.04084748031948       -0.03607497499065
C            4.15306434314238        1.16044648124538       -0.00071950808701
C            5.53695493871955        1.15419137574222       -0.02755636522176
C            6.22594401006220       -0.04606776284420       -0.08911817065498
C            5.53048468726821       -1.24365640206523       -0.12405204979668
C            4.14651560739563       -1.24481566905984       -0.09733673637638
C            1.37730480006680       -0.08966523812989        1.21005770228387
C            2.11015339398193       -0.16122597295212        2.39910679573318
C            1.47237154518171       -0.21320514612760        3.62144441071853
C            0.08907487511658       -0.19434360446912        3.69049927642495
C           -0.64235917599466       -0.12409326668815        2.51927383615045
C           -0.01809924151328       -0.07247758249888        1.28210828358096
H           -4.93519466243988       -2.33386989374745       -0.20616419529118
H           -3.78205555866009       -4.53289521625697       -0.19595764710570
H           -1.31207237199267       -4.60374812544242       -0.06711882797993
H           -0.02535269123915       -2.51391092917417        0.04521941901998
H            0.06840619457961        2.47455055579090        0.28190894286540
H           -1.13927590159870        4.61210473778292        0.37372337628876
H           -3.61002201984265        4.64597694416043        0.24767573832192
H           -4.84478740779255        2.50248019262015        0.03094047610210
H           -1.80695363482721        0.13187537259794       -2.44924930460022
H           -0.56914484240030        0.21408824453098       -4.57865084905415
H            1.90990979283010        0.17433121165662       -4.54541216228570
H            3.10711269758915        0.05677825257443       -2.41774836908343
H            3.60788312877456        2.09162144270248        0.04606374116532
H            6.07732276571147        2.08873282577668       -0.00040193543170
H            7.30552767142255       -0.04810030290078       -0.11015573225900
H            6.06593756504965       -2.18018206011174       -0.17209629332067
H            3.59640337903063       -2.17390065325172       -0.12469525902398
H            3.18836878162819       -0.17548187310741        2.35812820368605
H            2.06100521544819       -0.26813892248316        4.52527372301115
H           -0.41490610269446       -0.23401349933377        4.64396231252451
H           -1.72291849592600       -0.10802242161161        2.55627912733559
