55
 energy: -86.198228987726 gnorm: 0.000060750043 xtb: 6.7.1 (edcfbbe)
O           -5.15790474607576        0.11342446675181        0.01279300013872
C           -3.88689344763077        0.07727572992073        0.00839885785748
C           -3.16307355021568       -1.17192284181269        0.01097015846980
C           -3.90158380270518       -2.37487418597069        0.01890802240580
C           -3.26733216272771       -3.59186012176053        0.02119619501134
C           -1.87821194972959       -3.65649007938390        0.01521462841666
C           -1.14211525747769       -2.48156671536516        0.00754643822908
C           -1.76369715916597       -1.24528481017348        0.00578434806753
C           -0.87176962842301       -0.00967688055378       -0.00004336868190
C           -1.69138199093732        1.27613676552343       -0.00407662298051
C           -1.00040283764284        2.47484134381237       -0.01177848742237
C           -1.66819963409794        3.68986853355511       -0.01581029022448
C           -3.05878882066652        3.70456382058778       -0.01151190426997
C           -3.76121085520884        2.52579947364992       -0.00351952700708
C           -3.09258778218498        1.28238422458449        0.00025939905627
C           -0.03453443834242       -0.03495841111913       -1.25121906648540
C           -0.67501321622984       -0.04271928196791       -2.48359766640702
C            0.04253923242928       -0.06218719117547       -3.66300757222304
C            1.43274285788650       -0.07360076316952       -3.62028756684003
C            2.09007085529501       -0.06456043582624       -2.41176081893303
C            1.36940678891654       -0.04442817992446       -1.20752587588382
N            2.03589202033772       -0.03651179308368       -0.00145747912411
C            3.46545023606349       -0.02614858882801       -0.00231729843342
C            4.14476316961142        1.18504837456297       -0.03493536797465
C            5.52904468698335        1.19219113791651       -0.03558230450893
C            6.23160133562036       -0.00143627116623       -0.00357151795395
C            5.55031468980203       -1.20740905784432        0.02896919178395
C            4.16609117885739       -1.22522092247337        0.02961974775263
C            1.37075918074513       -0.03352108002124        1.20537693519347
C            2.09267623184026       -0.03770674114807        2.40902131709450
C            1.43659957744554       -0.03683949702229        3.61826235702224
C            0.04641149267336       -0.03027619052600        3.66231381830644
C           -0.67234776063869       -0.02350786261283        2.48350607418819
C           -0.03313905051857       -0.02533164663043        1.25045093422228
H           -4.97939944926093       -2.29490032975137        0.02321365944905
H           -3.85374022421979       -4.49979371293922        0.02763360512290
H           -1.37349471055297       -4.61051262950310        0.01678606623050
H           -0.06178477182269       -2.52741448412487        0.00314892648386
H            0.08059908300534        2.46014673304280       -0.01484092199324
H           -1.10976321652481        4.61342732479917       -0.02213971546311
H           -3.59249225265194        4.64444048144316       -0.01446113173233
H           -4.84185108936565        2.50712928431327        0.00000688373036
H           -1.75493604704368       -0.03346077120495       -2.50226026341463
H           -0.47423403547821       -0.06865619635431       -4.61001760676855
H            2.00178882775940       -0.08962384432557       -4.53714321106763
H            3.16809581681190       -0.07358673910585       -2.38677528556789
H            3.58866675945631        2.11007397729718       -0.05956408246757
H            6.05753728494600        2.13298171542772       -0.06083736973025
H            7.31093545493671        0.00819052558608       -0.00395974779898
H            6.09577253243910       -2.13847171806901        0.05378305464534
H            3.62607016965369       -2.15979658492726        0.05479445194840
H            3.17070254709545       -0.04181899493178        2.38308736617511
H            2.00661119321897       -0.04088832702431        4.53464640610488
H           -0.46942174112501       -0.02945109627856        4.60985905510374
H           -1.75225866898938       -0.01625795091896        2.50327144797121
