55
 energy: -86.278042681660 gnorm: 0.000052563607 xtb: 6.7.1 (edcfbbe)
O           -5.35261185314485       -0.00058347925818       -0.00162256053660
C           -4.12545566750391       -0.00041018306686       -0.00080016104101
C           -3.35248393276998       -1.25419500196838       -0.00024530276027
C           -4.05306559899959       -2.46479254767023       -0.00028390472743
C           -3.38407043027784       -3.66846621291699        0.00029888625345
C           -1.99511453232596       -3.67712535186533        0.00090125610973
C           -1.29445303742323       -2.48710793591530        0.00089588252973
C           -1.95684752336010       -1.26355438083175        0.00035139913906
C           -1.12979568358844        0.00001466566872        0.00028305316416
C           -1.95720440143655        1.26334798968342        0.00024684382093
C           -1.29515469701450        2.48708846976247        0.00069236496569
C           -1.99615261713476        3.67690813575632        0.00058815955757
C           -3.38510633820606        3.66785567727806       -0.00002184374465
C           -4.05376223478383        2.46399323282535       -0.00050014363373
C           -3.35283851102609        1.25359385773853       -0.00035386670681
C           -0.27822940346246        0.00007194082815       -1.25847214317516
C           -0.92196543294966        0.00004760123717       -2.48674728796317
C           -0.20990679602795        0.00007288628994       -3.67183048184430
C            1.17443454060339        0.00012231743779       -3.62646437991192
C            1.83149544701533        0.00014497461134       -2.41342502594066
C            1.11841655531977        0.00011738504257       -1.21025773930745
N            1.79161399336969        0.00014311386456       -0.00004601588182
C            3.21906417597541        0.00011626021003       -0.00022817987269
C            3.91276568405850        1.20375477164153       -0.00029549172707
C            5.29695397959301        1.19998305658000       -0.00053765569901
C            5.98923297423221        0.00004669932619       -0.00070983922892
C            5.29689440665976       -1.19985480500113       -0.00062896680617
C            3.91270589711015       -1.20355608759626       -0.00038513002046
C            1.11868773807739        0.00021193849179        1.21031685746087
C            1.83202765467781        0.00031731425250        2.41332805933812
C            1.17522097034801        0.00039393090523        3.62650670184721
C           -0.20911192620588        0.00036131207434        3.67217073345225
C           -0.92142613795219        0.00024492360688        2.48724136463828
C           -0.27794861233425        0.00017362123925        1.25882852181125
H           -5.13299185212325       -2.42186872581983       -0.00075573342581
H           -3.93516338647533       -4.59686364079519        0.00028967051659
H           -1.46072578176136       -4.61561473687024        0.00135472181423
H           -0.21442910661667       -2.49875068025475        0.00134076244777
H           -0.21513297789464        2.49903022453812        0.00114120744551
H           -1.46202977076243        4.61554929321302        0.00096124537132
H           -3.93646206422579        4.59609723411858       -0.00011717607771
H           -5.13367636123020        2.42076461136492       -0.00097231334666
H           -2.00297604075439        0.00000631067872       -2.50671895167139
H           -0.72983782978025        0.00005390139437       -4.61751068709330
H            1.74846211651928        0.00014378534390       -4.54126292654532
H            2.91026202213885        0.00018409054014       -2.39072372123837
H            3.36502970684795        2.13460738001225       -0.00017403131632
H            5.83502616216272        2.13623881192018       -0.00059904924870
H            7.06902860169701        0.00001963769639       -0.00090994667784
H            5.83491882923834       -2.13613800720826       -0.00076080915816
H            3.36492603673681       -2.13438238626373       -0.00033474223858
H            2.91078993008611        0.00033644715356        2.39039227954683
H            1.74944287037740        0.00047810432751        4.54118361507583
H           -0.72883493225386        0.00042012534217        4.61796531185690
H           -2.00243482104727        0.00020712930468        2.50741631040592
