  99
       -158.09676821
 C          7.1900681659       -4.8039221009        0.1198713303
 C          5.8053762436       -4.8005837814        0.0512991098
 C          5.1161949310       -3.6040799401        0.0213451499
 C          5.8124409316       -2.3970058365        0.0591973012
 C          5.0847795092       -1.1294391279        0.0268477577
 N          5.7870320729       -0.0007117568       -0.0021470167
 C          5.0848242311        1.1279775960       -0.0353286185
 C          5.8128385499        2.3955495462       -0.0589717956
 C          7.2046155531        2.4041639701       -0.1307029600
 C          7.8879090561        3.6043386277       -0.1518676274
 C          7.1916172990        4.8021331677       -0.1002940279
 C          5.8071156915        4.7988678019       -0.0277803481
 C          5.1173146961        3.6025499158       -0.0075612076
 N          3.7540961028        1.1737395151       -0.0461392164
 C          3.1351645777       -0.0008374855       -0.0114923159
 C          1.6719479970       -0.0007798334       -0.0141679553
 C          0.9754222911        1.1726254965       -0.2787445449
 C         -0.4111025547        1.1830001229       -0.2805236571
 N         -1.0892255267        2.3785953465       -0.5490679422
 C         -2.1523191803        2.5419520952       -1.4171710134
 C         -2.6215984068        1.6873031977       -2.4024497744
 C         -3.7161565825        2.0944440691       -3.1400775386
 C         -4.3130085246        3.3345946800       -2.9286334566
 C         -3.8084329904        4.2155304076       -1.9925336724
 C         -2.7142221132        3.8243748184       -1.2339304983
 C         -1.9329160317        4.4712221512       -0.2169620644
 C         -1.9975127182        5.7192098523        0.3871590718
 C         -1.0762410623        6.0287601830        1.3682374357
 C         -0.1065862315        5.1074322293        1.7560606411
 C         -0.0238987006        3.8576879299        1.1712248429
 C         -0.9361983921        3.5492633432        0.1731460704
 C         -1.1256014206        0.0008471036       -0.0074482042
 N         -2.5231838229        0.0025293565        0.0002782347
 C         -3.3277251614        0.8243278953        0.7688617246
 C         -2.9712625112        1.7579359326        1.7293894145
 C         -3.9853114993        2.4495819560        2.3631925941
 C         -5.3239972372        2.2002106076        2.0741699833
 C         -5.6839320880        1.2318798979        1.1575676607
 C         -4.6820406416        0.5319252207        0.5008953006
 C         -4.6890224367       -0.5261868040       -0.4698980765
 C         -5.7002562998       -1.2249277286       -1.1134197890
 C         -5.3534610042       -2.1913252420       -2.0370926222
 C         -4.0190194347       -2.4402931475       -2.3455909992
 C         -2.9959254831       -1.7508924757       -1.7240482723
 C         -3.3387054692       -0.8188549382       -0.7570164900
 C         -0.4112198813       -1.1828147504        0.2591834369
 N         -1.0890159324       -2.3780503432        0.5301210134
 C         -0.9416538691       -3.5477994899       -0.1945373411
 C         -0.0385142619       -3.8546872780       -1.2012828559
 C         -0.1248952583       -5.1045326319       -1.7854166235
 C         -1.0898852976       -6.0271280695       -1.3891283788
 C         -2.0018799695       -5.7192914982       -0.3989232236
 C         -1.9325847892       -4.4717299959        0.2054930737
 C         -2.7027897663       -3.8276083102        1.2325974673
 C         -3.7848435916       -4.2235038408        2.0061230706
 C         -4.2782042204       -3.3459984238        2.9514149488
 C         -3.6823573785       -2.1041367097        3.1558890950
 C         -2.6001344436       -1.6920012968        2.4028745351
 C         -2.1414813831       -2.5441275042        1.4104304211
 C          0.9751603034       -1.1739140299        0.2509037418
 N          3.7539634679       -1.1752250996        0.0280495463
 C          7.2044047502       -2.4056965185        0.1274170456
 C          7.8871166604       -3.6060286159        0.1579246262
 H          7.7264606308       -5.7412205437        0.1433255001
 H          5.2639310746       -5.7348383510        0.0216902759
 H          4.0390519017       -3.5833063352       -0.0328716912
 H          7.7290572738        1.4624678102       -0.1713490422
 H          8.9664559720        3.6098637172       -0.2089783862
 H          7.7283908541        5.7392883412       -0.1170273876
 H          5.2663176035        5.7329911041        0.0117765292
 H          4.0403082287        3.5817514262        0.0487076612
 H          1.5247481558        2.0699298644       -0.5126379076
 H         -2.1487259101        0.7382582924       -2.5991311146
 H         -4.1137003950        1.4368684021       -3.8988457490
 H         -5.1709562629        3.6148772694       -3.5211922660
 H         -4.2510150447        5.1901111271       -1.8530584626
 H         -2.7562964757        6.4290909183        0.0949215257
 H         -1.1072775597        6.9953603477        1.8484610839
 H          0.5950026648        5.3740272997        2.5327814394
 H          0.7234881204        3.1470227610        1.4907146942
 H         -1.9401030316        1.9424449042        1.9888525644
 H         -3.7315006764        3.1963677092        3.1009694215
 H         -6.0885203606        2.7634298177        2.5882822639
 H         -6.7226172796        1.0182543365        0.9560396652
 H         -6.7359230201       -1.0120711907       -0.8962060658
 H         -6.1252790873       -2.7530823362       -2.5418128694
 H         -3.7759905707       -3.1842295458       -3.0898103594
 H         -1.9684383803       -1.9350709030       -1.9981531339
 H          0.7053411200       -3.1432655642       -1.5272284208
 H          0.5700960943       -5.3702075082       -2.5683615266
 H         -1.1244457789       -6.9935212775       -1.8695927839
 H         -2.7568738887       -6.4302464013       -0.0995987043
 H         -4.2262797790       -5.1992608522        1.8712100914
 H         -5.1258622892       -3.6304654658        3.5567806279
 H         -4.0705865661       -1.4492379564        3.9217855485
 H         -2.1275031014       -0.7416834144        2.5946348374
 H          1.5245293890       -2.0720626161        0.4814290733
 H          7.7294472654       -1.4639444511        0.1575437367
 H          8.9658738122       -3.6116637258        0.2109380882
