99
 energy: -158.082342672308 gnorm: 0.000065660169 xtb: 6.7.1 (edcfbbe)
C            7.19399400207446       -4.79830990266297        0.36840337134470
C            5.80918746365754       -4.80728059648756        0.28299437322487
C            5.11164302533152       -3.61908038363863        0.19557920141229
C            5.79480624787469       -2.40212648086519        0.19146280971739
C            5.06103815169839       -1.14253100423775        0.09344357999890
N            5.77413250379157       -0.00397702181127       -0.01129344117901
C            5.06231846639285        1.13564541885094       -0.11407624980762
C            5.79759102229037        2.39419146110587       -0.21352371172451
C            7.18997918419364        2.39112446882405       -0.29988528267801
C            7.88377414981062        3.58229789983438       -0.38913448289508
C            7.19983662151817        4.78849958087957       -0.39188711153387
C            5.81509355239271        4.79931375110263       -0.30557915941884
C            5.11603846242882        3.61206296175388       -0.21742151619940
N            3.75423621742580        1.17163009971769       -0.12878705107433
C            3.08271337496889       -0.00205523217792       -0.00733678441122
C            1.66616750890833       -0.00110638408090       -0.00430592195393
C            0.93876246699230        1.19161362762820       -0.20985794582875
C           -0.43682038184874        1.19498246329530       -0.21108193067250
N           -1.12397053119140        2.40185107128151       -0.43248865465466
C           -2.11858328645803        2.61944131285072       -1.36283558623996
C           -2.54713277294419        1.80464170123971       -2.40140171159600
C           -3.57272411751182        2.26781247898118       -3.20408839669115
C           -4.14665555790412        3.51916877207685       -2.99590803890605
C           -3.68716734740715        4.35729848774071       -1.99530929612881
C           -2.65968391358252        3.91278794207603       -1.17703625617869
C           -1.92796723037068        4.50725494643311       -0.09016929130133
C           -1.99564083032874        5.73590486242747        0.54973421085553
C           -1.12429747647675        5.98754600816147        1.59451179944988
C           -0.20124523074097        5.02914720748508        2.00718128384902
C           -0.11736902716666        3.79627879103456        1.38736180834595
C           -0.98086241311661        3.54366228806438        0.32904987475058
C           -1.16415279088264        0.00051218489061        0.00275641798043
N           -2.56616897368508        0.00114715364761        0.00627402353231
C           -3.37112347626490        0.76671442128265        0.82445957728044
C           -3.01528632121653        1.64102728195222        1.84266470992773
C           -4.02966477532009        2.28377587111661        2.52606152294113
C           -5.36858418270922        2.05128205787789        2.22098403913766
C           -5.72956538699166        1.14971815952983        1.23559418274634
C           -4.72814120623431        0.49638631916501        0.53340857895242
C           -4.73108284251510       -0.49310937863997       -0.50964568000084
C           -5.73643293725150       -1.14599709939541       -1.20662724912251
C           -5.38098005119252       -2.04771184973664       -2.19389112182751
C           -4.04376226078034       -2.28081007885334       -2.50589298198958
C           -3.02557755043866       -1.63848610826462       -1.82778543569304
C           -3.37572555887536       -0.76403847082825       -0.80773298328632
C           -0.43711096474098       -1.19477327856409        0.21293054059273
N           -1.12446989290531       -2.40085343939408        0.43799124642949
C           -0.98675495728315       -3.54282228317312       -0.32425415356509
C           -0.12974929041961       -3.79612085103559       -1.38766756787201
C           -0.21849378034816       -5.02879707600968       -2.00717700900962
C           -1.14001833563914       -5.98635576237104       -1.58917508043846
C           -2.00480107890270       -5.73410193947440       -0.53910345572364
C           -1.93218758945057       -4.50560626705522        0.10055504676125
C           -2.65694796634358       -3.91049746233474        1.19173678217575
C           -3.67978224410524       -4.35414768862068        2.01628176939190
C           -4.13278042925051       -3.51546355645890        3.01937700809592
C           -3.55688903798797       -2.26438744408465        3.22377626180666
C           -2.53578976864595       -1.80209534826520        2.41488466425994
C           -2.11383185753345       -2.61750230825702        1.37410721429909
C            0.93842322441420       -1.19300533075693        0.20475002150778
N            3.75296554111517       -1.17680257997760        0.11181806624865
C            7.18724596449667       -2.40091096714789        0.27675033724347
C            7.87952890420438       -3.59302054510513        0.36533002048315
H            7.73726495347446       -5.72917195345243        0.43658996986647
H            5.27367232113074       -5.74549504809700        0.28442634850194
H            4.03435340474395       -3.61033654016146        0.12673737732749
H            7.70704752532569        1.44369109379198       -0.29753550744438
H            8.96191246646350        3.57208521106825       -0.45675235759077
H            7.74429325792944        5.71863275442987       -0.46054962975075
H            5.28082208042694        5.73823744770008       -0.30682200531703
H            4.03878998866634        3.60475039666938       -0.14778960029693
H            1.48422095114924        2.10152375054108       -0.40172209545409
H           -2.08695621019169        0.84719388616454       -2.58874016254020
H           -3.93087577251474        1.64585406338856       -4.01077095053649
H           -4.95007026768443        3.84491836738323       -3.63937589480846
H           -4.11357574966116        5.33881581454016       -1.85564578185418
H           -2.71573409554497        6.47686536191111        0.23822254343789
H           -1.15902569828112        6.93910407896618        2.10351118378609
H            0.46272464355615        5.25191196395819        2.82926173185158
H            0.59563964126764        3.05483548030403        1.71680460223362
H           -1.98166512738972        1.80948041929449        2.10460471212965
H           -3.77525301186139        2.97703792626180        3.31395043467997
H           -6.13398347294860        2.57466271288064        2.77413857536454
H           -6.76830145636887        0.95332439226021        1.01820137426865
H           -6.77394122451443       -0.94916106179436       -0.98382832654810
H           -6.14946360611316       -2.57075453652016       -2.74307477884989
H           -3.79368809857512       -2.97423832967591       -3.29502234092401
H           -1.99342118884201       -1.80739923483139       -2.09510713303359
H            0.58201635389609       -3.05530518354513       -1.72118481454340
H            0.44041817489881       -5.25209106044514       -2.83316691278096
H           -1.17872773246607       -6.93777927479042       -2.09813827251345
H           -2.72367028859081       -6.47447298373359       -0.22338527473605
H           -4.10768408682479       -5.33540923186659        1.87941030762866
H           -4.93256178183536       -3.84055495257335        3.66769007119074
H           -3.90988115085690       -1.64195557790601        4.03236752539561
H           -2.07390881401893       -0.84488241839537        2.59920245243522
H            1.48379108492147       -2.10353961669364        0.39387921763106
H            7.70557275764384       -1.45416618396929        0.27421547723385
H            8.95772465124777       -3.58423544331781        0.43222757114240
