  80
       -124.50034131
 O          4.3642603814        3.4291348828       -1.9273611031
 C          3.8634934190        2.4470537421       -1.4090194241
 C          2.3982861542        2.3110435642       -1.2450250819
 C          1.7316148768        1.0880176794       -1.3396198222
 C          0.3685506341        1.0116435335       -1.1516212166
 C         -0.3727516554        2.1587551481       -0.8507741866
 N         -1.7413673097        2.0876251030       -0.6158029355
 C         -2.5556069179        1.2210525809       -1.3541976019
 C         -2.2652025657        0.9373699240       -2.6887322092
 C         -3.0978428741        0.1157116686       -3.4242234956
 C         -4.2352782299       -0.4273924414       -2.8499514165
 C         -4.5234228147       -0.1561933095       -1.5213731473
 C         -3.6915123305        0.6556110635       -0.7744095142
 C         -2.3217733622        2.9564043759        0.3202516625
 C         -3.5675129628        3.5346003839        0.0840644954
 C         -4.1326584985        4.3776677149        1.0217438070
 C         -3.4646346485        4.6665865967        2.2002627838
 C         -2.2205445563        4.1041361515        2.4350140213
 C         -1.6522781856        3.2524418610        1.5074153998
 C          0.2906991067        3.3892999338       -0.7886272811
 C          1.6484961686        3.4622259716       -0.9965662296
 C          4.7054089879        1.3467979228       -0.8635498070
 C          5.9981570014        1.1598741232       -1.3542180726
 C          6.8135608360        0.1780613231       -0.8218527233
 C          6.3512251241       -0.6357335513        0.1998622565
 C          5.0586383490       -0.4705860715        0.6864616806
 C          4.5007133269       -1.3486553921        1.7561279285
 O          5.1331244755       -1.6948525187        2.7335115650
 C          3.0887296926       -1.7170524199        1.5071090647
 C          2.1604291748       -1.7496440626        2.5463522756
 C          0.8263313096       -1.9769664280        2.2883504579
 C          0.3868906133       -2.2208890942        0.9829644629
 N         -0.9554149563       -2.4225663439        0.7002801140
 C         -1.3173526821       -3.3012163536       -0.3358662092
 C         -0.6672996314       -4.5258282958       -0.4777719119
 C         -1.0257579022       -5.3853028758       -1.4985705511
 C         -2.0351010860       -5.0402530139       -2.3830390772
 C         -2.6844126409       -3.8249874054       -2.2410104737
 C         -2.3298765609       -2.9562209229       -1.2267149734
 C         -1.9554049811       -1.7534785535        1.4148533614
 C         -1.7516988622       -0.4541489674        1.8781560385
 C         -2.7433808094        0.1935351325        2.5894270876
 C         -3.9563915269       -0.4306640563        2.8316583226
 C         -4.1691179213       -1.7155484655        2.3597666208
 C         -3.1776663699       -2.3774554638        1.6621840902
 C          1.3323604139       -2.2632031946       -0.0481401410
 C          2.6560312953       -1.9970013615        0.2094536733
 C          4.2498023444        0.5358318736        0.1683113210
 H          2.2841871616        0.1926253709       -1.5757714026
 H         -0.1333788369        0.0588513265       -1.2218375130
 H         -1.3936894817        1.3776925201       -3.1498395108
 H         -2.8633605572       -0.0882324166       -4.4582924145
 H         -4.8917152025       -1.0561266064       -3.4315784463
 H         -5.3995735188       -0.5851152019       -1.0576593309
 H         -3.9166519065        0.8544040770        0.2612108131
 H         -4.0862973137        3.3227347744       -0.8389439166
 H         -5.0980644614        4.8194963487        0.8252962983
 H         -3.9080558842        5.3273175376        2.9290062387
 H         -1.6911657045        4.3223316073        3.3509626812
 H         -0.6852883583        2.8104095772        1.6964527174
 H         -0.2742814190        4.2860455444       -0.5845589549
 H          2.1573625918        4.4134181257       -0.9605035512
 H          6.3451702715        1.7990332658       -2.1523581413
 H          7.8145790015        0.0445007014       -1.2034398522
 H          6.9770165391       -1.4091041710        0.6196804943
 H          2.4990004341       -1.5676220165        3.5551718334
 H          0.1102386266       -1.9741034323        3.0959751261
 H          0.1146616585       -4.7963695142        0.2167322705
 H         -0.5189061656       -6.3334382629       -1.5984667446
 H         -2.3134798227       -5.7157882786       -3.1772421733
 H         -3.4681021230       -3.5435931255       -2.9281701699
 H         -2.8312285072       -2.0078372092       -1.1188308748
 H         -0.8165190391        0.0441111475        1.6729525408
 H         -2.5748227140        1.1998571967        2.9426436145
 H         -4.7296256787        0.0829437052        3.3822852323
 H         -5.1101175803       -2.2114649623        2.5456159117
 H         -3.3416306113       -3.3842010087        1.3079807855
 H          1.0096640776       -2.4822604507       -1.0545628867
 H          3.3732979542       -2.0163346625       -0.5973750822
 H          3.2736689289        0.7014973944        0.5947546611
