  80
       -124.50034131
 O          4.3642603814        3.4291348828       -1.9273611031
 C          3.8634934190        2.4470537421       -1.4090194241
 C          2.3982861542        2.3110435642       -1.2450250819
 C          1.7316148768        1.0880176794       -1.3396198222
 C          0.3685506341        1.0116435335       -1.1516212166
 C         -0.3727516554        2.1587551481       -0.8507741866
 N         -1.7413673097        2.0876251030       -0.6158029355
 C         -2.5556069179        1.2210525809       -1.3541976019
 C         -2.2652025657        0.9373699240       -2.6887322092
 C         -3.0978428741        0.1157116686       -3.4242234956
 C         -4.2352782299       -0.4273924414       -2.8499514165
 C         -4.5234228147       -0.1561933095       -1.5213731473
 C         -3.6915123305        0.6556110635       -0.7744095142
 C         -2.3217733622        2.9564043759        0.3202516625
 C         -3.5675129628        3.5346003839        0.0840644954
 C         -4.1326584985        4.3776677149        1.0217438070
 C         -3.4646346485        4.6665865967        2.2002627838
 C         -2.2205445563        4.1041361515        2.4350140213
 C         -1.6522781856        3.2524418610        1.5074153998
 C          0.2906991067        3.3892999338       -0.7886272811
 C          1.6484961686        3.4622259716       -0.9965662296
 C          4.7054089879        1.3467979228       -0.8635498070
 C          5.9981570014        1.1598741232       -1.3542180726
 C          6.8135608360        0.1780613231       -0.8218527233
 C          6.3512251241       -0.6357335513        0.1998622565
 C          5.0586383490       -0.4705860715        0.6864616806
 C          4.5007133269       -1.3486553921        1.7561279285
 O          5.1331244755       -1.6948525187        2.7335115650
 C          3.0887296926       -1.7170524199        1.5071090647
 C          2.1604291748       -1.7496440626        2.5463522756
 C          0.8263313096       -1.9769664280        2.2883504579
 C          0.3868906133       -2.2208890942        0.9829644629
 N         -0.9554149563       -2.4225663439        0.7002801140
 C         -1.3173526821       -3.3012163536       -0.3358662092
 C         -0.6672996314       -4.5258282958       -0.4777719119
 C         -1.0257579022       -5.3853028758       -1.4985705511
 C         -2.0351010860       -5.0402530139       -2.3830390772
 C         -2.6844126409       -3.8249874054       -2.2410104737
 C         -2.3298765609       -2.9562209229       -1.2267149734
 C         -1.9554049811       -1.7534785535        1.4148533614
 C         -1.7516988622       -0.4541489674        1.8781560385
 C         -2.7433808094        0.1935351325        2.5894270876
 C         -3.9563915269       -0.4306640563        2.8316583226
 C         -4.1691179213       -1.7155484655        2.3597666208
 C         -3.1776663699       -2.3774554638        1.6621840902
 C          1.3323604139       -2.2632031946       -0.0481401410
 C          2.6560312953       -1.9970013615        0.2094536733
 C          4.2498023444        0.5358318736        0.1683113210
 H          2.2841871616        0.1926253709       -1.5757714026
 H         -0.1333788369        0.0588513265       -1.2218375130
 H         -1.3936894817        1.3776925201       -3.1498395108
 H         -2.8633605572       -0.0882324166       -4.4582924145
 H         -4.8917152025       -1.0561266064       -3.4315784463
 H         -5.3995735188       -0.5851152019       -1.0576593309
 H         -3.9166519065        0.8544040770        0.2612108131
 H         -4.0862973137        3.3227347744       -0.8389439166
 H         -5.0980644614        4.8194963487        0.8252962983
 H         -3.9080558842        5.3273175376        2.9290062387
 H         -1.6911657045        4.3223316073        3.3509626812
 H         -0.6852883583        2.8104095772        1.6964527174
 H         -0.2742814190        4.2860455444       -0.5845589549
 H          2.1573625918        4.4134181257       -0.9605035512
 H          6.3451702715        1.7990332658       -2.1523581413
 H          7.8145790015        0.0445007014       -1.2034398522
 H          6.9770165391       -1.4091041710        0.6196804943
 H          2.4990004341       -1.5676220165        3.5551718334
 H          0.1102386266       -1.9741034323        3.0959751261
 H          0.1146616585       -4.7963695142        0.2167322705
 H         -0.5189061656       -6.3334382629       -1.5984667446
 H         -2.3134798227       -5.7157882786       -3.1772421733
 H         -3.4681021230       -3.5435931255       -2.9281701699
 H         -2.8312285072       -2.0078372092       -1.1188308748
 H         -0.8165190391        0.0441111475        1.6729525408
 H         -2.5748227140        1.1998571967        2.9426436145
 H         -4.7296256787        0.0829437052        3.3822852323
 H         -5.1101175803       -2.2114649623        2.5456159117
 H         -3.3416306113       -3.3842010087        1.3079807855
 H          1.0096640776       -2.4822604507       -1.0545628867
 H          3.3732979542       -2.0163346625       -0.5973750822
 H          3.2736689289        0.7014973944        0.5947546611
  80
       -124.49815954
 O          3.9871209697        2.3452428357       -3.1274707009
 C          3.5677133989        2.0189054732       -2.0315755396
 C          2.1476258451        2.1379811558       -1.6568091029
 C          1.7422249617        2.2725171025       -0.3264585137
 C          0.4202810155        2.4808053293       -0.0090355634
 C         -0.5571280762        2.5491726560       -1.0111685675
 N         -1.8789750390        2.8043476928       -0.6997971396
 C         -2.7240753372        3.4405722507       -1.6259755185
 C         -4.0448101677        3.0198807767       -1.7659939508
 C         -4.8823209756        3.6474218861       -2.6684054664
 C         -4.4173445615        4.6986234587       -3.4412931242
 C         -3.1077585348        5.1271850297       -3.2976277341
 C         -2.2646881105        4.5089176437       -2.3941480838
 C         -2.4139826027        2.4601100554        0.5522687908
 C         -3.3027398050        3.3184255378        1.1968396868
 C         -3.8440128665        2.9653532878        2.4183566487
 C         -3.5048024036        1.7622259943        3.0155612750
 C         -2.6193579136        0.9082408426        2.3787900497
 C         -2.0786922689        1.2506949502        1.1550269321
 C         -0.1532924334        2.3823193462       -2.3433439647
 C          1.1721834335        2.1989816085       -2.6559742429
 C          4.4709311829        1.4756754055       -0.9734336975
 C          5.6577437844        2.1240012501       -0.6469566113
 C          6.4863884150        1.6007491738        0.3317159019
 C          6.1463811932        0.4244954316        0.9734855834
 C          4.9663912655       -0.2433374277        0.6463219567
 C          4.6585398609       -1.5396214240        1.3116733856
 O          5.5386903564       -2.2377903922        1.7820499324
 C          3.2380609121       -1.9480908928        1.3139410991
 C          2.9193735347       -3.2964398243        1.1468767603
 C          1.6098704018       -3.7048509298        1.0276626307
 C          0.5728127190       -2.7695993418        1.0933179100
 N         -0.7515902562       -3.1440976854        0.8983185498
 C         -1.2040577720       -4.3990489331        1.3293788780
 C         -0.7609427107       -4.9210950194        2.5438969332
 C         -1.2036846604       -6.1577963202        2.9716305954
 C         -2.0986381740       -6.8856429813        2.2045832194
 C         -2.5450565571       -6.3685701422        0.9995267988
 C         -2.1005325399       -5.1370045078        0.5584171293
 C         -1.6067202660       -2.3064473813        0.1697845567
 C         -2.9541419483       -2.2015816217        0.5128356148
 C         -3.8010836202       -1.4016518628       -0.2297127318
 C         -3.3212856137       -0.6925085527       -1.3188837643
 C         -1.9802886853       -0.7796372869       -1.6548541091
 C         -1.1261110201       -1.5794432679       -0.9200984735
 C          0.8886289254       -1.4317009032        1.3515341673
 C          2.1986370447       -1.0264186500        1.4536379164
 C          4.1359597071        0.2873534783       -0.3362144813
 H          2.4815438145        2.2606756850        0.4596888927
 H          0.1322143975        2.6244281698        1.0212383764
 H         -4.4056502161        2.2030595991       -1.1588128157
 H         -5.9034666912        3.3111263556       -2.7697250132
 H         -5.0731730405        5.1860771092       -4.1459584542
 H         -2.7406071352        5.9539253385       -3.8871280835
 H         -1.2473190709        4.8514942784       -2.2745732057
 H         -3.5654757235        4.2588672754        0.7349271846
 H         -4.5315284129        3.6377116246        2.9092622408
 H         -3.9279642917        1.4921278877        3.9707904528
 H         -2.3561073778       -0.0366731322        2.8315500009
 H         -1.4088370941        0.5814996486        0.6410529263
 H         -0.8930027439        2.4101002786       -3.1288753315
 H          1.4824009044        2.0858560588       -3.6838952853
 H          5.9176853273        3.0370445152       -1.1614708516
 H          7.4030657655        2.1097668914        0.5888282097
 H          6.7852338376        0.0000436521        1.7334713458
 H          3.7244103639       -4.0114649082        1.0700303597
 H          1.3783446294       -4.7454365082        0.8578843281
 H         -0.0709134923       -4.3495714646        3.1472687464
 H         -0.8536437098       -6.5506089656        3.9145291926
 H         -2.4473355486       -7.8485377557        2.5447144660
 H         -3.2376298869       -6.9316682951        0.3920329005
 H         -2.4395470416       -4.7419542075       -0.3880413384
 H         -3.3300621247       -2.7560530940        1.3599830393
 H         -4.8424405354       -1.3306846324        0.0466458789
 H         -3.9864095534       -0.0791161308       -1.9067628794
 H         -1.5945380657       -0.2281599497       -2.4993709388
 H         -0.0837314377       -1.6527563955       -1.1927114701
 H          0.0927238876       -0.7140438001        1.4677984355
 H          2.4210641265        0.0072030782        1.6665858091
 H          3.2439385140       -0.2374251520       -0.6393771298
  80
       -124.49752789
 O          4.1747058194        2.6725820652       -3.0326789784
 C          3.7090338454        2.2666253395       -1.9837792298
 C          2.2792482876        2.3847786820       -1.6462068493
 C          1.8464853499        2.4944680832       -0.3226744411
 C          0.5155838903        2.6819158117       -0.0301312011
 C         -0.4427808465        2.7305625501       -1.0513276000
 N         -1.7827270852        2.9208502250       -0.7682534874
 C         -2.6256378381        3.5226395876       -1.7224153091
 C         -3.8888303279        2.9906125641       -1.9695162898
 C         -4.7223667171        3.5828135955       -2.8990892123
 C         -4.3070300702        4.7066931865       -3.5946346082
 C         -3.0521150770        5.2404417998       -3.3496607946
 C         -2.2145043619        4.6580593959       -2.4170819060
 C         -2.3457739680        2.5203268039        0.4520272432
 C         -3.3642182522        3.2719462276        1.0358250141
 C         -3.9404641231        2.8573564845        2.2213475607
 C         -3.5079431665        1.6993309526        2.8461712171
 C         -2.4905471827        0.9540751177        2.2737347892
 C         -1.9151406223        1.3567664794        1.0851150512
 C         -0.0082243502        2.5999847162       -2.3775935400
 C          1.3277901192        2.4550568801       -2.6660357778
 C          4.5544771852        1.6044307413       -0.9474074789
 C          5.7581881903        2.1723963734       -0.5429147374
 C          6.5395479982        1.5362859783        0.4071249020
 C          6.1384059907        0.3229145414        0.9334193837
 C          4.9412528753       -0.2655996200        0.5248947147
 C          4.5927273999       -1.6144082871        1.0491124361
 O          5.4606996302       -2.3800338409        1.4327057005
 C          3.1671921222       -1.9998666288        1.0455044333
 C          2.8436210159       -3.3448139697        0.8507295196
 C          1.5341781431       -3.7630070186        0.8145772338
 C          0.4949080496       -2.8451045515        1.0032085425
 N         -0.8307954951       -3.2515471712        0.9646827417
 C         -1.1880497048       -4.5405322781        1.3926260982
 C         -0.5938356254       -5.0959642439        2.5245269490
 C         -0.9474217690       -6.3645431362        2.9423823620
 C         -1.9012186857       -7.0907019587        2.2479928640
 C         -2.4994775272       -6.5392062169        1.1268545217
 C         -2.1461811351       -5.2747056976        0.6961895464
 C         -1.8255494049       -2.4065282928        0.4528095232
 C         -3.0890722164       -2.3778107202        1.0421883016
 C         -4.0847579464       -1.5790405313        0.5154569430
 C         -3.8371606778       -0.7959486381       -0.5997408554
 C         -2.5806320302       -0.8091677783       -1.1818281269
 C         -1.5789417787       -1.6085321077       -0.6636716841
 C          0.8200450086       -1.5066035014        1.2478697830
 C          2.1314494463       -1.0888259695        1.2609091271
 C          4.1512700091        0.3838898413       -0.4177809139
 H          2.5709822889        2.4804575512        0.4777565156
 H          0.2048490197        2.8143235965        0.9949192691
 H         -4.2055405279        2.1144280685       -1.4241415377
 H         -5.6986795428        3.1606747979       -3.0853322471
 H         -4.9579950444        5.1645999523       -4.3233560313
 H         -2.7248564557        6.1211969991       -3.8815112625
 H         -1.2389481608        5.0779576637       -2.2196236651
 H         -3.7007193795        4.1790310235        0.5555638471
 H         -4.7289828727        3.4480730145        2.6630685041
 H         -3.9601572168        1.3798024212        3.7722670228
 H         -2.1509284861        0.0460125591        2.7504187107
 H         -1.1398279245        0.7688472468        0.6223351371
 H         -0.7319749189        2.6218758738       -3.1779380197
 H          1.6620604609        2.3713974076       -3.6891442556
 H          6.0677781783        3.1121454663       -0.9754167159
 H          7.4690003696        1.9828173020        0.7268445117
 H          6.7438921133       -0.1952688421        1.6619904558
 H          3.6474355552       -4.0496606635        0.7013400581
 H          1.3006707529       -4.8010064669        0.6327065089
 H          0.1428977576       -4.5261670035        3.0718087445
 H         -0.4796794365       -6.7843999517        3.8203186898
 H         -2.1760762746       -8.0804566353        2.5784339615
 H         -3.2405044038       -7.1000854685        0.5771622979
 H         -2.6058684860       -4.8489333042       -0.1838425585
 H         -3.2823989677       -2.9906473361        1.9104658554
 H         -5.0588774198       -1.5651135670        0.9805936743
 H         -4.6243340105       -0.1851529091       -1.0147122239
 H         -2.3780303851       -0.1998819710       -2.0508008965
 H         -0.6025420469       -1.6267190791       -1.1257076679
 H          0.0283739263       -0.8024564999        1.4461792660
 H          2.3572154124       -0.0562767812        1.4778279572
 H          3.2432745812       -0.0741807129       -0.7774820827
