  80
  -123.998872093700       0.486000378860961      !
 O         -1.8126481021        5.2312454444       -1.7653281049
 C         -1.2652347961        4.5077122064       -0.9537369153
 C         -1.7795085755        3.1727187748       -0.5994530132
 C         -1.5640232028        2.6170887242        0.6638343102
 C         -2.1168301681        1.4041795896        1.0033527686
 C         -2.8791465941        0.6795969308        0.0773262051
 N         -3.4411284242       -0.5393570769        0.4091753047
 C         -4.6105819605       -0.9764838173       -0.2422634074
 C         -4.7135451991       -2.2955660404       -0.6772203878
 C         -5.8625388770       -2.7308512362       -1.3096214618
 C         -6.9182607299       -1.8585665851       -1.5192976885
 C         -6.8206159508       -0.5462652577       -1.0856594579
 C         -5.6774481255       -0.1042617434       -0.4467036111
 C         -2.8737097287       -1.3762070525        1.3808974907
 C         -3.6898845267       -2.1475609389        2.2066409353
 C         -3.1276978717       -2.9964547886        3.1408427681
 C         -1.7517405425       -3.0835094155        3.2737526326
 C         -0.9373682880       -2.3125880250        2.4609412448
 C         -1.4907730253       -1.4681120825        1.5193078218
 C         -3.0770346792        1.2301107234       -1.1965050760
 C         -2.5573010953        2.4617782965       -1.5158945809
 C         -0.0138245859        4.9145247533       -0.2495930591
 C          0.0921538448        6.1679583777        0.3443701068
 C          1.2666034999        6.5367786435        0.9787000839
 C          2.3440997235        5.6714408122        0.9977621225
 C          2.2567418140        4.4176165814        0.3921960246
 C          3.4691850112        3.5548703306        0.3574189160
 O          4.5854075252        4.0416301971        0.4191781687
 C          3.2667067218        2.1002297274        0.2032591398
 C          4.2293633981        1.3661366729       -0.4938193268
 C          4.0866467323        0.0126852482       -0.6903752866
 C          2.9796247298       -0.6636096593       -0.1656501003
 N          2.8199308302       -2.0277682065       -0.3599154995
 C          3.9436021129       -2.8641116861       -0.4606186529
 C          5.0438298760       -2.6675720798        0.3722472604
 C          6.1477923002       -3.4920395629        0.2700755998
 C          6.1674345934       -4.5259291891       -0.6518237384
 C          5.0729007369       -4.7291335526       -1.4762726458
 C          3.9677683581       -3.9044801871       -1.3874949623
 C          1.5427622368       -2.5863042884       -0.5098630468
 C          1.2567062254       -3.8342350437        0.0428780562
 C          0.0135386655       -4.4073724254       -0.1385544979
 C         -0.9619693546       -3.7470116325       -0.8669164795
 C         -0.6892090983       -2.5013023841       -1.4069858182
 C          0.5536559459       -1.9215552365       -1.2336868943
 C          2.0408233296        0.0624937926        0.5750144215
 C          2.1764050366        1.4209713039        0.7500748171
 C          1.0702311044        4.0443247373       -0.2302124948
 H         -0.9971267422        3.1685543797        1.3988825126
 H         -1.9814996917        1.0128286237        2.0000204822
 H         -3.8867428039       -2.9694798018       -0.5108584847
 H         -5.9310580293       -3.7548057257       -1.6456224963
 H         -7.8126401214       -2.1996856774       -2.0174865936
 H         -7.6425909978        0.1370470867       -1.2377584675
 H         -5.6033011821        0.9165959951       -0.1012098740
 H         -4.7635602043       -2.0785702874        2.1109986144
 H         -3.7707957156       -3.5891597249        3.7740498833
 H         -1.3170642118       -3.7470690370        4.0051858744
 H          0.1370351248       -2.3785035619        2.5529112348
 H         -0.8624881612       -0.8836486535        0.8677061935
 H         -3.6503756325        0.6820325883       -1.9284448985
 H         -2.7249416589        2.8914343097       -2.4919985087
 H         -0.7516225288        6.8407502835        0.3066240813
 H          1.3442306632        7.5062935504        1.4472162856
 H          3.2731243089        5.9496736120        1.4725706098
 H          5.0799688935        1.8914686083       -0.9009317625
 H          4.8244266500       -0.5342522089       -1.2574605779
 H          5.0249185611       -1.8674990485        1.0978420807
 H          6.9943304344       -3.3294766042        0.9202919505
 H          7.0307069445       -5.1688863837       -0.7274493066
 H          5.0817111186       -5.5297773129       -2.2006757475
 H          3.1184184926       -4.0572330140       -2.0373583918
 H          2.0187019932       -4.3499701093        0.6087664312
 H         -0.1961342524       -5.3738506430        0.2943565898
 H         -1.9265416878       -4.2074471708       -1.0169626188
 H         -1.4449509745       -1.9780804840       -1.9748619982
 H          0.7689329200       -0.9548740416       -1.6653670356
 H          1.2127485868       -0.4588986083        1.0270486434
 H          1.4528777989        1.9537751187        1.3474108262
 H          0.9962698293        3.0965477049       -0.7400337254
  80
  -123.998849514000       0.474525653746331      !
 O         -1.6567214752        4.9299688042       -2.0320069178
 C         -1.1372464671        4.2821206696       -1.1410391856
 C         -1.6306370463        2.9551406101       -0.7324229613
 C         -1.4155130498        2.4490447925        0.5520501513
 C         -1.9695215218        1.2517316618        0.9408855813
 C         -2.7527319020        0.5006999780        0.0538646729
 N         -3.3490000026       -0.6794617484        0.4551482514
 C         -4.5414486938       -1.1207864977       -0.1449193916
 C         -4.7222155608       -2.4744652074       -0.4202451276
 C         -5.8958332756       -2.9149040548       -1.0018066651
 C         -6.9017862851       -2.0161872567       -1.3163695415
 C         -6.7305710688       -0.6706147952       -1.0345177605
 C         -5.5624377481       -0.2219392902       -0.4484694555
 C         -2.8006834149       -1.4615544503        1.4847509240
 C         -3.6318286787       -2.0745822792        2.4204116015
 C         -3.0893162674       -2.8615075026        3.4184943663
 C         -1.7184758004       -3.0429077760        3.5028907115
 C         -0.8894461880       -2.4324880019        2.5761341207
 C         -1.4239122056       -1.6495112236        1.5719011976
 C         -2.9414500988        0.9943773258       -1.2447047942
 C         -2.4057434529        2.2029870402       -1.6195616181
 C          0.0448912946        4.7921679875       -0.3840930345
 C          0.0486014311        6.0757209583        0.1524848683
 C          1.1572674094        6.5339849579        0.8446542136
 C          2.2691950707        5.7253192221        0.9886080421
 C          2.2844557183        4.4414277434        0.4438119521
 C          3.5195143771        3.6178705713        0.5629794969
 O          4.6132839181        4.1306703170        0.7181036754
 C          3.3426880307        2.1569560062        0.4248709518
 C          4.3175246493        1.4156080979       -0.2441685274
 C          4.1379363920        0.0738596445       -0.4957023035
 C          2.9767949532       -0.5734631085       -0.0630146579
 N          2.7352872957       -1.9072420713       -0.3712754732
 C          3.7966817792       -2.8196950183       -0.4507352956
 C          4.8464725747       -2.7502491462        0.4641711132
 C          5.8946619614       -3.6469019734        0.3885447666
 C          5.9081006060       -4.6286374863       -0.5887366750
 C          4.8647568261       -4.7041292389       -1.4967837128
 C          3.8167894139       -3.8058298179       -1.4354998855
 C          1.4382137456       -2.3142249822       -0.7113229120
 C          0.9724834719       -3.5744563880       -0.3383106308
 C         -0.2943469664       -3.9850593581       -0.7058996721
 C         -1.1164557292       -3.1492791444       -1.4441357563
 C         -0.6657243292       -1.8898010046       -1.8037136633
 C          0.6008697497       -1.4714034086       -1.4433557496
 C          2.0427647697        0.1495138221        0.6861713790
 C          2.2190352343        1.4929139143        0.9207029731
 C          1.1673671750        3.9845962501       -0.2490411609
 H         -0.8470339917        3.0272291004        1.2642964545
 H         -1.8270473953        0.8975073028        1.9504897189
 H         -3.9379906023       -3.1732475045       -0.1697140448
 H         -6.0236522936       -3.9662658720       -1.2125186364
 H         -7.8167098907       -2.3627153947       -1.7714611015
 H         -7.5145516830        0.0351241959       -1.2649895012
 H         -5.4347978386        0.8256743891       -0.2184470711
 H         -4.7006998601       -1.9311973373        2.3589368878
 H         -3.7422308088       -3.3317946745        4.1384000806
 H         -1.2993243266       -3.6560959727        4.2857023302
 H          0.1801350251       -2.5757329244        2.6274347902
 H         -0.7885906806       -1.1914680567        0.8321305557
 H         -3.5234872863        0.4212753562       -1.9502467821
 H         -2.5652372908        2.5880432000       -2.6155271838
 H         -0.8218958913        6.7019012502        0.0256969873
 H          1.1548540124        7.5275920505        1.2668416857
 H          3.1439113753        6.0706003326        1.5191951836
 H          5.2001386757        1.9253440115       -0.5997136229
 H          4.8808580071       -0.4794703944       -1.0499049228
 H          4.8315892792       -1.9913095449        1.2326932079
 H          6.7012325138       -3.5830638834        1.1035670378
 H          6.7253082461       -5.3314059764       -0.6410204468
 H          4.8699993706       -5.4619630692       -2.2658393577
 H          3.0111099076       -3.8581816696       -2.1530784665
 H          1.6133825722       -4.2280684822        0.2347974960
 H         -0.6416081052       -4.9640146422       -0.4111270351
 H         -2.1003694109       -3.4762441752       -1.7428826523
 H         -1.2994641033       -1.2284479399       -2.3756625178
 H          0.9518703846       -0.4928084782       -1.7355857461
 H          1.1755286749       -0.3560544909        1.0790023397
 H          1.4942913314        2.0296590187        1.5121803241
 H          1.1757745825        3.0145211246       -0.7200884807
  80
  -123.996499593000       3.947396739270771E-002 !
 O         -1.9971050764        5.5069102965       -0.4538345986
 C         -1.1577957003        4.6297473061       -0.3534659118
 C         -1.5292139000        3.1997139950       -0.2571409841
 C         -0.7633308815        2.1746364729       -0.8155587019
 C         -1.1392314536        0.8563911428       -0.6739655339
 C         -2.2916602917        0.5190659219        0.0429881219
 N         -2.6574143223       -0.8093344622        0.2299538671
 C         -2.4810596102       -1.7555963309       -0.7862391511
 C         -2.6044299012       -1.3902426013       -2.1267948491
 C         -2.4723938850       -2.3385679219       -3.1230905787
 C         -2.2267706359       -3.6637728646       -2.8036993405
 C         -2.0939785899       -4.0304556969       -1.4734337801
 C         -2.2137608435       -3.0878551937       -0.4703323066
 C         -3.2853503972       -1.1850240422        1.4267831977
 C         -4.3293639235       -2.1080599676        1.4283930285
 C         -4.9289973137       -2.4786586447        2.6168756369
 C         -4.5082572901       -1.9302973087        3.8172566767
 C         -3.4788632852       -1.0031742754        3.8203660265
 C         -2.8670869073       -0.6341042865        2.6378830280
 C         -3.0767310002        1.5484396310        0.5743292280
 C         -2.7069331711        2.8635020441        0.4129907951
 C          0.2930707792        4.9539089030       -0.2708371404
 C          0.7607197871        6.1603015032       -0.7931536917
 C          2.0955357964        6.5024546895       -0.6771792495
 C          2.9840317328        5.6458370783       -0.0473386767
 C          2.5336572510        4.4327020346        0.4628568277
 C          3.4586524221        3.4583586111        1.1120954360
 O          4.3388424451        3.7846137387        1.8827433448
 C          3.1593007588        2.0577105796        0.7379320739
 C          3.2108160977        1.0345851177        1.6831256927
 C          2.8164108996       -0.2440240829        1.3550090038
 C          2.3972065208       -0.5464460953        0.0552214813
 N          1.9689827916       -1.8202842065       -0.2858493334
 C          2.2184077674       -2.3078711370       -1.5807123093
 C          3.4597731725       -2.1048694603       -2.1808646705
 C          3.6995224589       -2.5848635178       -3.4541850276
 C          2.7128272657       -3.2747246545       -4.1402184461
 C          1.4797916901       -3.4802671835       -3.5435412664
 C          1.2283034939       -2.9997778896       -2.2726635694
 C          1.2769403474       -2.6218170984        0.6289707176
 C          0.4042132166       -2.0535235175        1.5562207851
 C         -0.2675636724       -2.8542225723        2.4597865647
 C         -0.0987461676       -4.2293062068        2.4413136838
 C          0.7551828663       -4.7997622928        1.5116646634
 C          1.4439323039       -4.0061467738        0.6152735320
 C          2.4191810570        0.4656963696       -0.9111972073
 C          2.7762343243        1.7480472435       -0.5685431661
 C          1.1852609633        4.1030369486        0.3694708532
 H          0.1260247512        2.4139502372       -1.3764567013
 H         -0.5348353418        0.0734857778       -1.1057537242
 H         -2.8208647234       -0.3634911292       -2.3816994786
 H         -2.5780589473       -2.0412412877       -4.1557112463
 H         -2.1396304770       -4.4046125228       -3.5834873531
 H         -1.8881158726       -5.0579711187       -1.2117523915
 H         -2.0996459590       -3.3785073365        0.5617602659
 H         -4.6695937057       -2.5284912008        0.4938075368
 H         -5.7374839031       -3.1941857539        2.6033394168
 H         -4.9805746790       -2.2203222628        4.7430301921
 H         -3.1426193051       -0.5697149901        4.7508853478
 H         -2.0604714122        0.0838961317        2.6445024005
 H         -3.9832865573        1.3027257926        1.1061010755
 H         -3.3195217180        3.6572427576        0.8126444194
 H          0.0584211273        6.8175216281       -1.2838761067
 H          2.4474847773        7.4406847844       -1.0788516886
 H          4.0294790922        5.8999714625        0.0444213187
 H          3.5399543217        1.2651132319        2.6851258130
 H          2.8342677342       -1.0245057873        2.1003840602
 H          4.2302543063       -1.5728710350       -1.6420432093
 H          4.6655034620       -2.4258353030       -3.9096291769
 H          2.9054139269       -3.6500495095       -5.1335173960
 H          0.7019781156       -4.0112045575       -4.0714161960
 H          0.2670020329       -3.1547749461       -1.8097382681
 H          0.2529036999       -0.9848681367        1.5599659644
 H         -0.9414573299       -2.4032594152        3.1727784389
 H         -0.6313208792       -4.8500995473        3.1454825448
 H          0.8954286941       -5.8702084822        1.4909390204
 H          2.1195506950       -4.4528498832       -0.0987831655
 H          2.1285531086        0.2368271175       -1.9251794610
 H          2.7732131083        2.5238443338       -1.3195076288
 H          0.8310348324        3.1924281322        0.8249385948
