66
 energy: -104.968744133341 gnorm: 0.000075356920 xtb: 6.7.1 (edcfbbe)
C           -7.68740084758008        1.01636671516959        1.50027035744367
C           -6.30206398413353        0.57349293150177        1.02876790644031
C           -5.47586601341493        0.18748811094114        2.27316226197191
C           -5.57185697054524        1.66617098242217        0.26553713772078
C           -5.96239733895619        2.99630184239337        0.23247104646574
C           -5.25183433651657        3.92846864493850       -0.50586899148463
C           -4.15319758158382        3.53750342748443       -1.25075993933098
C           -3.75205975292764        2.21415668744415       -1.23971187757070
C           -4.43747544118411        1.29042514046221       -0.46081635863004
N           -4.07953491251327       -0.07681373911914       -0.46422097296683
C           -2.82863788763456       -0.53587855127882       -0.14769058215878
C           -2.56338514360864       -1.91279091592134       -0.02990301938737
C           -1.30560889928609       -2.36294884464705        0.27984630235453
C           -0.23966754951496       -1.47661912197227        0.48320746317680
C            1.08303243115765       -2.01299361476920        0.79192712948598
O            1.26023953133169       -3.16489937597284        1.17336821691163
C            2.25265414503948       -1.09666519192739        0.61842820656215
C            2.38225128332736       -0.29935431460327       -0.51723344358743
C            3.49777290692855        0.50528473950332       -0.67308065580018
C            4.46903868312403        0.51553611622123        0.30949392407887
S            5.93708701728061        1.53321775723979        0.10408919488636
O            5.72942518198033        2.41843714675343       -1.02303775689516
O            6.25260213702445        2.15441145035146        1.37343596734674
C            7.22659299483099        0.35449569035382       -0.30488122701782
C            7.24630131913839       -0.18894024857526       -1.57543361531655
C            8.21531041808272       -1.12711355907025       -1.89089895840926
C            9.14335231009533       -1.51030845924914       -0.93393521722486
C            9.11173934846577       -0.95787220291170        0.33719178161237
C            8.14425016079365       -0.01877799599941        0.65742886212693
C            4.36454201784864       -0.27913408437703        1.43601241616145
C            3.25667533224272       -1.09356183326949        1.58488220367394
C           -0.51978936844027       -0.10510666428399        0.45102925086393
C           -1.78068347651067        0.35234790959133        0.15718024847976
C           -5.20351307724147       -0.91588423944156       -0.63987250618500
C           -5.19593787742323       -1.93977733614252       -1.57866075810642
C           -6.32551106976896       -2.71681412450063       -1.75870266759858
C           -7.46620630960374       -2.45199055331559       -1.02154214570398
C           -7.48729373612456       -1.39867843260717       -0.12219359158047
C           -6.36258926004059       -0.61356557428896        0.08170836274638
H           -7.59833376100318        1.86013297241426        2.17975495967650
H           -8.17073563273294        0.21130871706992        2.04785407824188
H           -8.31489304370425        1.30146948360465        0.65878696876237
H           -4.47579924512933       -0.14610902906007        2.01030891861338
H           -5.38599617658188        1.04581317284241        2.93578889860280
H           -5.97341319774287       -0.61736273702447        2.81022198717253
H           -6.82821570699118        3.32303500212727        0.78450214838862
H           -5.56905727198428        4.96065451463857       -0.51081867200542
H           -3.61532806227326        4.25635984113741       -1.85054619539075
H           -2.91968482386644        1.89036083159488       -1.84638562014889
H           -3.35987672313653       -2.62755478026985       -0.15838949017724
H           -1.11095074870017       -3.42243927616363        0.36295763329832
H            1.62051153826720       -0.32314958659559       -1.28154593840902
H            3.62536556087002        1.13826417384492       -1.53749701883152
H            6.51744173953452        0.14008349623719       -2.29918953746123
H            8.24624232061674       -1.55715590574225       -2.88024407253169
H            9.89788572819093       -2.24161858929015       -1.18166008255542
H            9.83763943022995       -1.25596229232232        1.07811994681409
H            8.09327997618788        0.44118785392774        1.63212203178511
H            5.14180499404540       -0.24330748109585        2.18268700195077
H            3.15199657197470       -1.73062116321580        2.45038744749115
H            0.25412300807240        0.60792538025578        0.69276256381833
H           -1.97058275199779        1.41318953960894        0.18833303526610
H           -4.31313073530394       -2.11313033370188       -2.17561760685299
H           -6.31572165041693       -3.51815361150179       -2.48227449256108
H           -8.35069489833850       -3.05620423169695       -1.15767284454698
H           -8.39656806734281       -1.19801711129972        0.42013369069706
