66
 energy: -104.886976703021 gnorm: 0.000097800113 xtb: 6.7.1 (edcfbbe)
C           -7.88627826809098        0.90494458829066        1.09157829347865
C           -6.43210518093884        0.50489254674063        0.83753128252989
C           -5.79412448818158        0.13679337027978        2.19491433094433
C           -5.62629122531994        1.62086654845222        0.20032439345311
C           -6.02649424585461        2.94555911891423        0.14076887471048
C           -5.23231846985027        3.90435158109576       -0.46943410992199
C           -4.02698987575365        3.54660419337701       -1.05313203424239
C           -3.60052471793058        2.23494590286849       -0.99902514485987
C           -4.38029994825677        1.27882626178192       -0.34896894332620
N           -3.99749913459015       -0.06918973312159       -0.31529273615646
C           -2.74838145468873       -0.49428386901852        0.08284609575523
C           -2.43317398529013       -1.86856225599880        0.17886599379112
C           -1.18427736537765       -2.27641185876857        0.56175640100473
C           -0.16395488844990       -1.34862307392311        0.86525197570395
C            1.14960153790098       -1.84494924995139        1.26684184791766
O            1.21398785274956       -3.00422409288154        1.78009983700711
C            2.32571513149244       -1.02104915601419        1.11600581088173
C            2.41024232417428        0.04637373837745        0.19575094797982
C            3.57047139787252        0.77069283879600        0.07074609597486
C            4.67364731593915        0.46067014116807        0.85928433501899
S            6.19049404714705        1.35546864749128        0.65096644804763
O            5.91332447665269        2.61851085500274       -0.01130608285061
O            6.89121587369055        1.43009689315904        1.92062223531702
C            7.15952048655119        0.33404744583314       -0.46527979065178
C            6.90583319793851        0.39935237946815       -1.82256091993694
C            7.60948863275623       -0.42717394667778       -2.68242668744781
C            8.55016385794132       -1.31153352712186       -2.17572447556224
C            8.79536633948852       -1.36946199722613       -0.81235053326288
C            8.09382830849760       -0.54355207210412        0.05066817468344
C            4.63241872954273       -0.61439322598688        1.74255749425279
C            3.48041846482461       -1.34778817594095        1.86437319046468
C           -0.53218074229224        0.01150318481442        0.93040240743292
C           -1.78025578879301        0.42639756194113        0.54760915660051
C           -5.04536089383439       -0.93806995502711       -0.65106349605927
C           -4.86674733300705       -1.96379773396045       -1.57871069449120
C           -5.92876819760045       -2.78063770880845       -1.91179937018845
C           -7.16955216230662       -2.56930286782381       -1.33175651775793
C           -7.35853003241397       -1.51813609713781       -0.44759723488019
C           -6.31223633731718       -0.67803857393918       -0.10419962622280
H           -7.92702859929639        1.74672709033099        1.77726360720834
H           -8.42256960678858        0.08405021758473        1.55947873580711
H           -8.38499470881152        1.17498746073747        0.16387117375772
H           -4.75641342924215       -0.16758614666961        2.08717405855247
H           -5.83141910393223        0.99442723617722        2.86267436957802
H           -6.34520170076587       -0.68312542938537        2.64950826894419
H           -6.96828460590603        3.24721348084126        0.56756829788886
H           -5.56621675427577        4.92993374372751       -0.50604319205226
H           -3.42551411662647        4.28485726145956       -1.56069980456299
H           -2.68685082723871        1.93488032844981       -1.48903167167586
H           -3.18422260123159       -2.61404411510024       -0.02368418083480
H           -0.94744473069273       -3.32718348192823        0.63239702396256
H            1.57121788106119        0.27075871606511       -0.44453594431005
H            3.65088760666622        1.59360594292858       -0.62300109030415
H            6.17543326707737        1.10655620356250       -2.18310433732898
H            7.42425943098702       -0.38121860865327       -3.74484981198684
H            9.09739117712707       -1.95611146444544       -2.84710861543204
H            9.53133929402223       -2.05517198914372       -0.42064400777264
H            8.26591558668349       -0.55185422118586        1.11589395374723
H            5.50831708977296       -0.83726713895955        2.33232422643962
H            3.42122121736695       -2.18357680645735        2.54593152675834
H            0.17015660175065        0.73230446703837        1.31903297442716
H           -2.03233191877672        1.46987935811940        0.64551667812604
H           -3.90987739354641       -2.08562006610916       -2.06269242773370
H           -5.79021727790334       -3.57200639867776       -2.63224123796805
H           -8.00010709545437       -3.21013005604619       -1.58491067258859
H           -8.33918934866702       -1.36014110279940       -0.03118074128993
