66
 energy: -104.895273276353 gnorm: 0.000060731367 xtb: 6.7.1 (edcfbbe)
C           -7.84406765860795       -1.21420824620214        0.82753676230959
C           -6.80549890107536       -1.01166362199487       -0.29615516528614
C           -7.40904907256945       -1.43014778262862       -1.65288859806206
C           -5.60716999543607       -1.88267853117818       -0.00060683127448
C           -5.75711210142912       -3.26075701287666        0.08200693166446
C           -4.69606326481075       -4.09416550726530        0.38543879599434
C           -3.44193048831107       -3.54983851409129        0.63535898161913
C           -3.25979906884616       -2.18949624980568        0.55839001707209
C           -4.32774186635015       -1.33849427007105        0.22221772543399
N           -4.11121492418423        0.01707831842745        0.13249142918757
C           -2.79590418792601        0.51744597423057        0.34566370260676
C           -2.46672470081140        1.15493103807649        1.54457602926229
C           -1.19175491140652        1.62261328912171        1.74284589213276
C           -0.19116010736718        1.45158136933204        0.76477350947042
C            1.13387145823744        1.99577462847761        1.02977085288958
O            1.25250760559992        2.95414153869533        1.85273108772316
C            2.29776380334323        1.45326657491400        0.35872289064699
C            2.35925726158294        0.13566093508637       -0.14173463689928
C            3.50772771449911       -0.33508243429326       -0.73074286721573
C            4.62264335304430        0.48879415668123       -0.83993040773471
S            6.12948255592607       -0.15154099496232       -1.52182512545419
O            5.82864306326682       -1.31153790748666       -2.34301407493980
O            6.87092593633821        0.92040206824926       -2.16164314582892
C            7.05905514350161       -0.70192882869789       -0.08625175864297
C            6.75865203654691       -1.92892524194278        0.47532116395985
C            7.42774952192455       -2.33121882284093        1.61900830334506
C            8.38159205307289       -1.50148179763933        2.18944205075021
C            8.67422587142843       -0.27254709264964        1.61808377117694
C            8.00693366170959        0.13300862260038        0.47382228602491
C            4.60427571034336        1.77635246845636       -0.31290731822378
C            3.46306239942306        2.24928117787355        0.28330220138724
C           -0.55606721577547        0.85954171405602       -0.45699728553550
C           -1.83317947978653        0.39006833216977       -0.65824579030765
C           -5.12156821405060        0.90253884519486       -0.16216021677575
C           -4.82935347143230        2.27333186782830       -0.27887719334006
C           -5.82348588243808        3.18313494522571       -0.55034126075044
C           -7.13218146459769        2.74701287186991       -0.71961013932994
C           -7.42217717403514        1.39754965914245       -0.63156038643405
C           -6.44123707568708        0.45287789720108       -0.36122662565351
H           -8.13472766059441       -2.25776721291892        0.89670900799393
H           -8.73415394476405       -0.62282434421264        0.63712000514734
H           -7.42378168385489       -0.90856105733125        1.78357807499137
H           -6.67681994220475       -1.29154618920126       -2.44574580748892
H           -7.70578717333613       -2.47399387112066       -1.63535872034850
H           -8.28460202054788       -0.83192348375393       -1.88426720027960
H           -6.72613686960263       -3.70106498950342       -0.09038067731790
H           -4.84601565555711       -5.16131895473798        0.43896271996092
H           -2.61087281556888       -4.18806384325513        0.89256971348082
H           -2.28994375299210       -1.76550544903615        0.76198784584501
H           -3.21791827712218        1.26672460609605        2.31252098074931
H           -0.91751482247116        2.11886416178839        2.66187430019708
H            1.51431836692667       -0.52465343969265       -0.02388074163109
H            3.56917543549162       -1.33802283505602       -1.12465599018359
H            6.01960209629732       -2.55361401536588       -0.00129026554304
H            7.20561811437991       -3.28945875307238        2.06356757098654
H            8.90156021468100       -1.81556281130415        3.08199813908005
H            9.42013538788164        0.36954614310561        2.06146586213298
H            8.21518992025104        1.07729260641129       -0.00506578656168
H            5.48919462224789        2.38773131172373       -0.40176496867482
H            3.42380476652321        3.24613042924156        0.69714973301840
H            0.16128652032469        0.80455350414130       -1.26092054027749
H           -2.10548441510647       -0.06241197089019       -1.60073625693157
H           -3.81247193050678        2.61020698863043       -0.15794375666472
H           -5.58139940194117        4.23128151160372       -0.63399912497528
H           -7.91854883573926        3.45543797374167       -0.92917429653460
H           -8.44136571227513        1.07825815872062       -0.77927314009188
