  51
        -86.70443978
 O          3.6804276825        3.3351117007        0.1954687946
 C          3.3347206770        2.3234263941       -0.3738351873
 C          4.3493170680        1.4138402890       -1.0599022699
 C          4.0091845248       -0.0592857505       -0.9983653609
 O          4.0860229603       -0.7488097431       -2.0115849784
 C          3.5368300098       -0.5945726928        0.2765340974
 C          3.6979176065        0.0963465222        1.4842320113
 C          3.1439103568       -0.3762898675        2.6504785042
 C          2.3958994111       -1.5501848491        2.6363806181
 C          2.2382450856       -2.2616288422        1.4692432496
 C          2.8229389776       -1.8144256894        0.2813067459
 O          2.6558481015       -2.5479539548       -0.8229383976
 C          1.9365712347        1.8579156190       -0.4132274908
 C          1.4285020710        1.0825027974       -1.4568713420
 C          0.1508456072        0.5740712527       -1.3854599350
 C         -0.6482779362        0.8167754276       -0.2660146278
 N         -1.9223286132        0.2442175801       -0.1740138368
 C         -3.0614877214        1.0421751497       -0.0073905515
 C         -3.0048684880        2.4306124041       -0.0156729279
 C         -4.1531154029        3.1904955808        0.1448678861
 C         -5.3801022309        2.5772816103        0.3010290643
 C         -5.4601266506        1.1940189429        0.2683627526
 C         -4.3172739059        0.4316343448        0.1059019907
 O         -4.4849973385       -0.9273980464        0.0406498023
 C         -3.3654171066       -1.6968641175       -0.1466208322
 C         -3.5537969287       -3.0658512888       -0.2132281247
 C         -2.4687730212       -3.9159421289       -0.3591843397
 C         -1.1947242798       -3.3868253489       -0.4113198399
 C         -1.0013188000       -2.0159019967       -0.3458195447
 C         -2.0808610885       -1.1471183128       -0.2444943552
 C         -0.1582454031        1.6294124626        0.7575144093
 C          1.1131659615        2.1509812185        0.6752726915
 H          5.3264701641        1.5893880467       -0.6040093061
 H          4.4248107548        1.6995042912       -2.1127637635
 H          4.2783294262        1.0036732649        1.5037304829
 H          3.2860319275        0.1638131437        3.5730712876
 H          1.9462446320       -1.9133386192        3.5478616975
 H          1.6747020123       -3.1807693826        1.4419876093
 H          3.1578544098       -2.1088499644       -1.5502099563
 H          2.0188698685        0.8995932237       -2.3400529765
 H         -0.2443541579       -0.0167075258       -2.1978262222
 H         -2.0574628114        2.9254341933       -0.1609601753
 H         -4.0759600478        4.2666716565        0.1399861771
 H         -6.2753245110        3.1639171867        0.4318447613
 H         -6.4043343956        0.6817050444        0.3604494400
 H         -4.5609109849       -3.4442496982       -0.1426130485
 H         -2.6253733424       -4.9813759596       -0.4162996932
 H         -0.3340732840       -4.0308536125       -0.5044216350
 H          0.0022800994       -1.6258440960       -0.3644047261
 H         -0.7730777534        1.8242886628        1.6230547661
 H          1.5104652274        2.7610159166        1.4718698691
