94
 energy: -127.917886598219 gnorm: 0.000066310697 xtb: 6.7.1 (edcfbbe)
C           -7.13279535297782        1.27932244324264       -5.08810294154909
C           -6.44929372410959        0.92369860671749       -3.80196301244139
C           -5.83006952853011        1.89399700646713       -3.02344111661354
C           -5.22600614989615        1.57226624803296       -1.82367488400739
C           -5.21660294942149        0.25429125208071       -1.36889720934324
N           -4.60919655507301       -0.07823715743618       -0.15282644409096
C           -5.17233007833237       -1.06411040376635        0.66743462491855
C           -6.55655885281040       -1.18319650934789        0.79245794538317
C           -7.10280750172784       -2.15981250910235        1.60010445328376
C           -6.29633080322659       -3.03997001903927        2.31480240436657
C           -6.90850143413469       -4.10013513968149        3.18042782958493
C           -4.91860868169214       -2.91289330057943        2.19043792815600
C           -4.35922803621909       -1.94580004597198        1.37749205129185
C           -3.44460096379552        0.58237112632884        0.25474411884447
C           -2.44994306213490        0.91381338917563       -0.66516365902256
C           -1.30637776291742        1.56304417732391       -0.25156666871743
C           -1.10065470428987        1.90807501132285        1.08332096099425
C            0.19203433065679        2.62630839403928        1.46031313673534
C            1.31271889170995        1.72869378426338        0.95246607355999
C            1.51782356880625        0.49505066065871        1.56813680765708
C            2.49680294419385       -0.37799728794949        1.14271908645233
C            3.30530328608144       -0.05669559917080        0.05327350758320
N            4.30799077796251       -0.92976310537295       -0.38271099753080
C            5.52378603764992       -0.41644566965700       -0.85052597123597
C            6.18741892010958       -1.01698973158704       -1.91925197210348
C            7.39125559587402       -0.51013196353338       -2.36879911288867
C            7.96570836988591        0.61054443213265       -1.78143054797928
C            9.25958469405837        1.17581574484013       -2.28564700186569
C            7.29559606852084        1.20959825277222       -0.72000808840661
C            6.09782563563227        0.70637555181531       -0.25413510208120
C            4.09602156386520       -2.31351613652124       -0.35361860566332
C            5.13293329631481       -3.18501361146021       -0.02063530442359
C            4.92093304025104       -4.54881962591065       -0.00332065034661
C            3.67514201526170       -5.08906302190016       -0.30425689107890
C            3.46345591284718       -6.57332263565642       -0.30210846038087
C            2.64361290850626       -4.21541260334244       -0.62626421599564
C            2.84519189471963       -2.84919358470249       -0.65725583729668
C            3.07932457716955        1.15329555827311       -0.59747677905314
C            2.10050699662350        2.02296554493395       -0.15500445742648
C            0.15804380626029        4.02762239421532        0.81487575750021
C            1.35843668870150        4.89886258153867        1.18548607844571
C            1.50014326507392        5.02894113247414        2.69712832091493
C            1.57975779425364        3.64059822376885        3.32035272872102
C            0.32275005444689        2.84610589436335        2.97850479230143
C           -2.09239581463443        1.56628664337270        1.99391389490795
C           -3.24572562296362        0.91868628842668        1.59109443771014
C           -5.82826407372029       -0.72563158941982       -2.15093564445667
C           -6.43778581333117       -0.38901037235010       -3.34275718819073
H           -6.74840529827979        2.21531045431536       -5.48647987080465
H           -6.99288057603037        0.49500285127704       -5.82939848820917
H           -8.20485565856831        1.39564796255736       -4.92204431112260
H           -5.82691650454811        2.92279312878954       -3.35556768541097
H           -4.75844415421918        2.34335303335622       -1.22839608167348
H           -7.19915738029623       -0.50207262529107        0.25317404678429
H           -8.17778814194899       -2.23563839914705        1.68583021432709
H           -6.15801072457527       -4.56653074767725        3.81383027483878
H           -7.36470844504112       -4.87387214811784        2.56189088375154
H           -7.68848618489101       -3.67702308068797        3.81147945193340
H           -4.26855807607198       -3.58669246467957        2.73101948169479
H           -3.28521221754130       -1.86728192657797        1.28765218221224
H           -2.57929292985494        0.65259653895320       -1.70575918380850
H           -0.54478212437744        1.78908619393717       -0.98352885078139
H            0.89638905867323        0.19936524816586        2.40010824430176
H            2.63958555144763       -1.31982270111726        1.65277334515538
H            5.75293137405969       -1.88483777684138       -2.39448970152751
H            7.88916920631111       -0.99254824885326       -3.19829932794406
H            9.87885036254937        1.51846860477640       -1.45879979721215
H            9.06680268700388        2.03056682491951       -2.93559268671921
H            9.81164539202943        0.43319696514819       -2.85669478111657
H            7.72513408988826        2.07954677575581       -0.24300259445737
H            5.59830212530520        1.17842980428210        0.57971220331140
H            6.10538569113773       -2.78371623638363        0.22623049508475
H            5.73745673361459       -5.20745878777770        0.25775918703439
H            2.40907085793877       -6.81517486114928       -0.19155040731268
H            4.02105733135099       -7.04202952222335        0.50639159601270
H            3.81381779930552       -7.00193678795195       -1.24226060800504
H            1.66575568584910       -4.60894826853595       -0.86645146914735
H            2.03182036101077       -2.18715078846379       -0.91814143027674
H            3.67487649238360        1.41008860651460       -1.46211240106806
H            1.95380207786252        2.93481593598091       -0.71142910364058
H           -0.75362844170511        4.52197490903595        1.16327810577739
H            0.07791507956847        3.94568833885275       -0.26991867287199
H            1.23287966127643        5.88662970519624        0.73434536735718
H            2.27718095972911        4.46480860736318        0.78928670502684
H            2.39561834124374        5.60599744453153        2.93886639818042
H            0.63739156196547        5.56140489172090        3.10580826692008
H            1.67521503198783        3.72171021300385        4.40590676024442
H            2.46101503084914        3.11647215507755        2.94281590763900
H           -0.54295622406477        3.41384544220199        3.32689740228912
H            0.33804917616726        1.89371782265993        3.50815954870482
H           -1.98739175930124        1.80357992453469        3.04038494726233
H           -4.00433538176085        0.66994171956878        2.31952891951417
H           -5.82110634256344       -1.75327416343662       -1.81696378410512
H           -6.90622762434875       -1.16349828667645       -3.93395587351011
