94
 energy: -127.918252029454 gnorm: 0.000058232476 xtb: 6.7.1 (edcfbbe)
C           -3.64432133216946       -5.84006764558459       -2.01813351093185
C           -3.86757960148996       -4.42529627816210       -1.57475197119882
C           -5.00156082188848       -3.72251618057249       -1.96477791931299
C           -5.21964862493105       -2.42497741457760       -1.54536118081379
C           -4.30562676540841       -1.79146387051948       -0.70420255037241
N           -4.52538482400100       -0.47940211234535       -0.26840719014019
C           -5.82415482028290       -0.04453606716814        0.02438594046036
C           -6.22654171081994        1.25311674634330       -0.29195701283604
C           -7.50658362399272        1.67844095000540        0.00035575843214
C           -8.42892579016985        0.82947950724003        0.60324249081073
C           -9.81233121640129        1.30926312839216        0.92532582027620
C           -8.02336481394416       -0.46290114480843        0.91287302813457
C           -6.74176264692546       -0.89753685464235        0.63534341212567
C           -3.44723799770532        0.40058352248512       -0.12290218925311
C           -2.38273585980837        0.38439450906342       -1.02403279825523
C           -1.32293491252779        1.25184418586345       -0.86728362667354
C           -1.27779405967261        2.17410865665445        0.17694663621632
C           -0.07515529273428        3.10888041698584        0.27433567163881
C            1.14778881432459        2.20233876872281        0.22886120376665
C            1.40578877442999        1.36301967122792        1.31133860147988
C            2.47098328803615        0.48715663970510        1.31668900281050
C            3.31801796006268        0.39671488046413        0.21298568436874
N            4.39635578880867       -0.49501806180284        0.20409512493078
C            5.59900271198857       -0.12966505734612       -0.41293980418289
C            6.34778760225367       -1.06541052804279       -1.12676294576519
C            7.53433882828828       -0.69786882069723       -1.72839712238544
C            8.00963507875558        0.60711437603049       -1.65004865159828
C            9.28828392100170        0.99624703178521       -2.32922793000628
C            7.25681230141080        1.53601181438296       -0.94235592628396
C            6.07310196679065        1.17841800999468       -0.32659180708392
C            4.26606328141906       -1.75669554457450        0.79708286683160
C            5.33608680553932       -2.33553311409888        1.47956100905664
C            5.20315662547988       -3.58094851226501        2.05945226619129
C            4.00535313884549       -4.28474227707348        1.99098962679548
C            3.88026539041521       -5.64214360031221        2.61523377628766
C            2.94180358458060       -3.70127851579101        1.31353814108141
C            3.06489344224666       -2.46021112519577        0.71949741000465
C            3.05002111829884        1.20605960021662       -0.88774073864929
C            1.98459349216674        2.08625110769981       -0.87594851344698
C           -0.16516545591195        4.11041450961731       -0.89635017172331
C            0.93579732146582        5.17107546529861       -0.87497344248421
C            0.95363863130584        5.92188094408739        0.45126423913359
C            1.08599488079976        4.92692002238255        1.59816231899822
C           -0.08126072413610        3.94486023830250        1.56694501122523
C           -2.34318152494553        2.18501717601077        1.06829029045402
C           -3.40764466110444        1.31397903746224        0.92726149944501
C           -3.16745930251514       -2.49286709530444       -0.30656148914883
C           -2.95585046242575       -3.78587752931671       -0.74206641995987
H           -2.58340566562531       -6.04128042005012       -2.15103077554990
H           -4.02604398669282       -6.53221727627499       -1.26597642629661
H           -4.16228846370535       -6.03958628294777       -2.95345612226292
H           -5.72331785255892       -4.19451868820670       -2.61671482773484
H           -6.10184169932651       -1.89153951235129       -1.86903934728620
H           -5.52739534855725        1.92343563651462       -0.77103985305345
H           -7.79987850834776        2.68728026371634       -0.25464689628601
H          -10.20640585952965        1.92036929691775        0.11538361260899
H           -9.79604877451373        1.92140315812126        1.82813761542118
H          -10.48461309928814        0.47162384247505        1.09476619501117
H           -8.71883362027310       -1.14150507456127        1.38671056196320
H           -6.44311337636331       -1.90396362791443        0.89141208818410
H           -2.39297834736418       -0.31498387469940       -1.84768020286646
H           -0.50807197759424        1.20828585738715       -1.57508512085985
H            0.75752468490680        1.38305122924547        2.17457223874558
H            2.64935653893942       -0.14071160551171        2.17790603354114
H            5.99114919185241       -2.08238110478712       -1.20618876451406
H            8.09992184372318       -1.43742609932733       -2.27778739994958
H            9.12489118301160        1.10575830769426       -3.40221949825033
H           10.04934827490408        0.23162960794646       -2.18469284770793
H            9.66073798388806        1.94210667059598       -1.94328810890936
H            7.60604184637614        2.55590683889162       -0.86101971848724
H            5.50758647547670        1.91258608385180        0.22910590153719
H            6.27147823115881       -1.79958385870824        1.55342138201361
H            6.04361497309668       -4.01189023224388        2.58541388843832
H            4.34131893911210       -6.39387149132943        1.97296865630326
H            2.83601839047502       -5.91023125366759        2.75676933825864
H            4.38633076350290       -5.67139522960805        3.57839495359141
H            2.00082641842166       -4.22861215067241        1.24127088711478
H            2.22763596246382       -2.02721041835359        0.19090525420076
H            3.67897100370724        1.13630647037591       -1.76401833348104
H            1.80880866159107        2.66876191102812       -1.76614022665914
H           -1.13493303841719        4.61096486946359       -0.82028643363613
H           -0.15707676627693        3.58134598325382       -1.85042488489412
H            0.77124545077923        5.87044045549111       -1.69886885468475
H            1.91142535255680        4.70603010740913       -1.02112425236216
H            1.78400652396986        6.63145443179207        0.46619263894481
H            0.02630702043042        6.48870595661759        0.56837190339558
H            1.09178123874936        5.45593041503422        2.55428611743019
H            2.02906710770622        4.38258375836188        1.50850070849376
H           -1.00809902577964        4.52101505615869        1.60903399400218
H           -0.04402267288150        3.30097214641548        2.44557101302221
H           -2.35891290559290        2.86807106607419        1.90230417943224
H           -4.21939960266529        1.33844724030182        1.64028868484661
H           -2.45021897286169       -2.01602729674081        0.34620031503073
H           -2.06724146382740       -4.31197389108326       -0.42206199209579
