  167
       -250.26023359
 C         -5.3589084937       -8.1281759038        0.8919430530
 C         -5.4449536354       -6.9845062804        0.2239657170
 C         -4.7623187957       -5.7399913212        0.5547142814
 C         -4.1909400631       -5.4992248460        1.8041298148
 C         -3.5206526031       -4.3201669193        2.0581229428
 C         -3.3857417471       -3.3545173397        1.0680671395
 C         -2.5748563036       -2.1089960086        1.3203955861
 O         -2.9063878465       -1.0328473594        0.4717638196
 C         -4.1261927674       -0.4384385232        0.6330247180
 C         -5.0391274577       -0.7556227496        1.6259942697
 C         -6.2483827616       -0.0743562202        1.7304580511
 C         -6.6045845626        0.9261383618        0.8524626193
 C         -5.7100451437        1.2342278713       -0.1647082869
 C         -4.4701490491        0.5658999252       -0.2794833832
 C         -3.8172927827        1.1149551886       -1.4323269422
 C         -2.6211071638        0.8453166618       -2.0825693300
 C         -2.2963181451        1.5757013158       -3.2075044280
 C         -3.1512478460        2.5597276169       -3.6954193224
 C         -4.3599152157        2.8278472369       -3.0831853999
 C         -4.6927016928        2.0978550401       -1.9510810516
 N         -5.8317044713        2.1474632511       -1.1833588793
 C         -7.0230815143        2.8635094021       -1.5532714085
 C         -6.9856313495        4.3491779261       -1.1799544730
 C         -7.2321178660        4.5925015935        0.3074605619
 C         -7.3079690610        6.0850677706        0.6582244446
 C         -5.9970014239        6.6928512258        1.1618507063
 C         -4.8125154638        6.5301854780        0.2117950279
 O         -4.2832242551        5.2362033248        0.4118147098
 C         -3.1521763628        4.8693255402       -0.2468744024
 C         -2.6209150510        5.5121948988       -1.3543826807
 C         -1.4690173558        5.0338314771       -1.9723521893
 C         -0.7834185074        3.9356532232       -1.4986744590
 C         -1.2822071831        3.3161523203       -0.3619494705
 C         -2.4782782291        3.7453846026        0.2438212411
 C         -2.7320724101        2.8624836619        1.3460094542
 C         -3.7296378030        2.7912134889        2.3086244804
 C         -3.6393654524        1.8172757894        3.2823101051
 C         -2.5628872354        0.9348548116        3.3163874693
 C         -1.5616491752        0.9813769500        2.3643758821
 C         -1.6682647327        1.9356732826        1.3654484554
 N         -0.7962315204        2.2226759826        0.3310070459
 C          0.3479053760        1.4855841537        0.0313380196
 C          0.2536184895        0.1063471923       -0.1214783428
 C          1.3674428892       -0.6363244990       -0.4612854265
 C          2.5998429049       -0.0268549670       -0.6060082813
 C          2.7339368499        1.3403687295       -0.3987985646
 N          4.0050131234        1.9203107139       -0.4665205833
 C          4.6540720230        2.5759041381        0.5684989521
 C          4.1696650813        2.9992100119        1.7953901466
 C          5.0563721469        3.6110958897        2.6613983035
 C          6.3954704108        3.7938732677        2.3264912692
 C          6.8888108187        3.3592047740        1.1128335021
 C          6.0149783527        2.7401469942        0.2285857023
 C          6.1884502311        2.1534059484       -1.0705045068
 C          7.3056506639        1.9561953030       -1.8887813515
 O          8.5236099392        2.3866306694       -1.4373117575
 C          9.6321516396        1.5203175432       -1.5906564495
 C          9.8864606661        0.6842659170       -0.3255176480
 C          8.6518763610       -0.0552112432        0.1973251038
 C          8.1144409166       -1.1319250713       -0.7492247996
 C          6.6482328388       -1.4668977889       -0.4786724258
 C          6.4224878450       -2.1608024381        0.8682821113
 N          5.0233738767       -2.3659737814        1.1311901112
 C          4.2167775971       -1.5522960453        1.8924019455
 C          4.5219536949       -0.3875455692        2.5824399950
 C          3.5112868729        0.2207923850        3.3014513028
 C          2.2171978104       -0.2945205737        3.3225424867
 C          1.9014299160       -1.4461345193        2.6309046204
 C          2.9054238411       -2.0853201006        1.9156431434
 C          2.9391720194       -3.2692568080        1.1089623469
 C          1.9727244844       -4.2233587695        0.7688070704
 O          0.7215073603       -4.0446467415        1.2870741802
 C         -0.1752524755       -5.1307016136        1.2483460759
 C         -0.8777000821       -5.3351209714       -0.0708046612
 C         -0.8850511534       -4.3558075197       -1.0525063283
 C         -1.5796510848       -4.5506796757       -2.2294796633
 C         -2.3024174902       -5.7218134174       -2.4529818463
 C         -3.0614239785       -5.8639956494       -3.6893246048
 C         -3.9966096485       -6.7733488153       -3.9353888682
 C         -2.2738312846       -6.7093101408       -1.4672002531
 C         -1.5710930454       -6.5182075759       -0.2971791117
 C          2.3522934218       -5.2710896893       -0.0555148282
 C          3.6631645016       -5.3763258407       -0.5162295755
 C          4.6364929694       -4.4584889950       -0.1814791722
 C          4.2637909380       -3.3981568121        0.6367345509
 C          7.1012409446        1.3542907625       -3.1237093880
 C          5.8370010192        0.9291164756       -3.5183789531
 C          4.7337241647        1.0601651878       -2.6991421987
 C          4.9255282824        1.6652838151       -1.4647631093
 C          1.5990905092        2.1136725928       -0.1014144755
 C          1.7207709730        3.5114132954        0.0664089296
 N          1.8375707554        4.6427676533        0.2179602380
 C         -3.9751498261       -3.5746666991       -0.1686190731
 C         -4.6641562510       -4.7436174986       -0.4159025411
 H         -5.8894021002       -9.0087064359        0.5719881165
 H         -4.7582655799       -8.2364565043        1.7790501198
 H         -6.0471566210       -6.9418624011       -0.6756737745
 H         -4.2811857771       -6.2357194870        2.5879665986
 H         -3.0929388193       -4.1449740415        3.0366039115
 H         -1.5215993217       -2.3258596232        1.1017726594
 H         -2.6433936164       -1.8062650271        2.3737604625
 H         -4.8336146779       -1.5405539703        2.3353716042
 H         -6.9253831760       -0.3481025255        2.5262928319
 H         -7.5456846755        1.4425147871        0.9571724808
 H         -1.9687399395        0.0682941164       -1.7202256185
 H         -1.3661126724        1.3821478592       -3.7219308724
 H         -2.8676894518        3.1188938293       -4.5749531660
 H         -5.0207530965        3.5824464320       -3.4826056839
 H         -7.8800738608        2.3806898695       -1.0768796452
 H         -7.1462101208        2.7708510988       -2.6390413065
 H         -6.0142171419        4.7455867781       -1.4691710462
 H         -7.7544046822        4.8663136703       -1.7602899521
 H         -6.4422505194        4.1152033081        0.8862491443
 H         -8.1804084971        4.1201464251        0.5768532764
 H         -7.6469025258        6.6437634880       -0.2179238768
 H         -8.0544587918        6.2316059156        1.4420041159
 H         -6.1554944611        7.7586096278        1.3387702406
 H         -5.7210502894        6.2308203724        2.1114837355
 H         -4.0389544692        7.2781856266        0.4381592954
 H         -5.1373364102        6.6775846382       -0.8265506686
 H         -3.0985933132        6.3901972493       -1.7602464849
 H         -1.1009861893        5.5484167012       -2.8469900660
 H          0.1051607836        3.5828178129       -1.9970709048
 H         -4.5473509574        3.4932687888        2.2930916891
 H         -4.4066521768        1.7419648519        4.0385150703
 H         -2.5058582240        0.2035676699        4.1107549913
 H         -0.7213845206        0.3041437538        2.4035844499
 H         -0.7093886137       -0.3603308897        0.0060209255
 H          1.2862375604       -1.7023491651       -0.6042496403
 H          3.4726818605       -0.6127646800       -0.8477799376
 H          3.1376913457        2.8585300006        2.0743786769
 H          4.6999655572        3.9562265527        3.6208182766
 H          7.0544295484        4.2802879519        3.0304296308
 H          7.9244864627        3.4914611202        0.8420109203
 H          9.5050409704        0.8633828303       -2.4550490090
 H         10.4994374583        2.1620846048       -1.7755578216
 H         10.6871756205       -0.0245594805       -0.5465986709
 H         10.2341337820        1.3544719905        0.4627482024
 H          7.8694895269        0.6799702434        0.3905053170
 H          8.9156694565       -0.5106096543        1.1544439975
 H          8.7236171644       -2.0353562220       -0.6683827667
 H          8.1811644055       -0.7805271912       -1.7791392300
 H          6.0663868300       -0.5432564435       -0.4997111429
 H          6.2702772887       -2.1131192354       -1.2746471163
 H          6.9303151997       -3.1307336632        0.8785974665
 H          6.8330597088       -1.5522298440        1.6758552742
 H          5.5126698642        0.0419331586        2.5672369669
 H          3.7336254604        1.1155693301        3.8625982695
 H          1.4570784631        0.2184096623        3.8940695138
 H          0.9043278842       -1.8584402602        2.6426021886
 H         -0.9310462150       -4.8951742867        2.0081392638
 H          0.3327101630       -6.0562218347        1.5536481442
 H         -0.3439302675       -3.4350201247       -0.8932939102
 H         -1.5794061581       -3.7742895403       -2.9814276236
 H         -2.8364286794       -5.1221504684       -4.4463004576
 H         -4.2838751257       -7.5191721483       -3.2136763795
 H         -4.5216007775       -6.7989374872       -4.8749699369
 H         -2.8026450869       -7.6374158262       -1.6174449553
 H         -1.5613539027       -7.2924178864        0.4568915783
 H          1.6334241952       -6.0145473642       -0.3625354167
 H          3.9170091542       -6.2082192057       -1.1563228176
 H          5.6461486688       -4.5668333755       -0.5450642460
 H          7.9286026144        1.2215154547       -3.8051124286
 H          5.7223099522        0.4776867929       -4.4925530117
 H          3.7616816115        0.7110767651       -3.0106459152
 H         -3.8963871988       -2.8200062171       -0.9368206866
 H         -5.1246675802       -4.8959438462       -1.3815534592
