  105
       -164.59955197
 O         -9.6396911642        2.3164115289        1.2537552515
 P         -8.6937728009        1.4696356705        0.5110971008
 C         -8.7250362217       -0.2848661919        1.0148557354
 C         -9.4005401605       -1.2484775155        0.2834771720
 C         -9.4204090330       -2.5595877718        0.7273086946
 C         -8.7699337179       -2.9060616158        1.8995826760
 C         -8.1095642365       -1.9390542311        2.6407152372
 C         -8.0910931674       -0.6287128250        2.2005853501
 C         -8.9510657029        1.4931141578       -1.2893679695
 C         -8.2147564611        0.6934176582       -2.1557527517
 C         -8.4390097303        0.7739816614       -3.5173112583
 C         -9.3911936943        1.6498675716       -4.0168504031
 C        -10.1222994238        2.4495931885       -3.1535616291
 C         -9.9003481617        2.3725514771       -1.7902682057
 C         -6.9636676219        1.9644160014        0.7537495110
 C         -6.6844211444        3.2397152139        1.2431432544
 C         -5.3870630154        3.6671947523        1.4650400271
 C         -4.3032588730        2.8305463423        1.2138854088
 C         -4.5521062738        1.5569326375        0.7296045332
 C         -5.8771755259        1.1387679504        0.4926717956
 O         -5.9299808721       -0.1326831098        0.0210183677
 C         -4.6517799337       -0.5762418900       -0.0502168426
 C         -4.2087055870       -1.8331942668       -0.4784110076
 C         -2.8673360548       -2.0731237122       -0.4822786852
 C         -1.8858412968       -1.0973756356       -0.0527371067
 C         -0.5099072803       -1.3816990585       -0.0705527260
 C          0.0406514028       -2.5109066266       -0.7749923466
 C          1.3765793214       -2.7636097681       -0.8039570107
 C          2.3003069837       -1.9310264414       -0.1370662719
 C          3.7638213972       -2.2702269521       -0.0940584075
 C          4.6646363226       -1.0619743681       -0.0257040729
 C          4.3670371581        0.0745804951       -0.7710388555
 C          5.2124550736        1.1652908297       -0.7653920540
 C          6.3792121568        1.1396844793       -0.0058575108
 N          7.2327909459        2.2499861215        0.0153132821
 C          8.5967848013        2.2258564167       -0.1936063895
 C          9.4212923854        1.1592284007       -0.5240404409
 C         10.7669902845        1.4174215035       -0.7052438290
 C         11.2852476625        2.7033181791       -0.5719580223
 C         10.4648938044        3.7732368766       -0.2679264572
 C          9.1101949235        3.5389175176       -0.0811294297
 C          7.9906467018        4.3903732684        0.2164250499
 C          7.8621272014        5.7514989178        0.4526482050
 C          6.6084313557        6.2576243395        0.7394876573
 C          5.4960885831        5.4222544757        0.8068273276
 C          5.5992974113        4.0634791916        0.5758674294
 C          6.8517204422        3.5531577519        0.2633348650
 C          6.6874207344        0.0017942921        0.7342315033
 C          5.8395085389       -1.0880451832        0.7156349313
 C          4.2055899710       -3.1461567229       -1.2530473896
 C          4.3205898870       -2.8113209927       -2.5836820815
 C          4.7475580317       -3.7838814999       -3.4795986811
 C          5.0550490503       -5.0642089813       -3.0439170378
 C          4.9468680479       -5.4044282843       -1.7057911131
 C          4.5205939754       -4.4388481041       -0.8063564647
 C          4.3150136031       -4.4970333600        0.6279594659
 C          4.4678753035       -5.5398894370        1.5283836590
 C          4.2124298158       -5.3052216709        2.8682592313
 C          3.8076363191       -4.0500036247        3.3063193062
 C          3.6414770551       -3.0041526928        2.4111721098
 C          3.9047731313       -3.2289622637        1.0754464295
 C          1.7836666694       -0.8433740066        0.6016888679
 C          0.4528089649       -0.5668196196        0.6250490317
 C         -2.3848281956        0.1758813019        0.3894523867
 C         -3.7277755000        0.4231228030        0.3777432839
 H         -9.9045046898       -0.9695532611       -0.6318758958
 H         -9.9423217881       -3.3131315214        0.1555163031
 H         -8.7805964518       -3.9312394870        2.2396554322
 H         -7.6084885021       -2.2085959585        3.5593029796
 H         -7.5837895554        0.1407680305        2.7685655632
 H         -7.4809130933        0.0093063977       -1.7577886056
 H         -7.8714813974        0.1512124544       -4.1936776773
 H         -9.5629553987        1.7072109943       -5.0817024369
 H        -10.8643070959        3.1308670504       -3.5431588139
 H        -10.4587635143        2.9806811079       -1.0933412519
 H         -7.5235421967        3.8841655582        1.4603093889
 H         -5.2130636634        4.6620688210        1.8460155135
 H         -3.2929260250        3.1622637932        1.3958814385
 H         -4.9202868959       -2.5840413055       -0.7849586391
 H         -2.5244655897       -3.0496060084       -0.7795528222
 H         -0.6172618566       -3.1547376728       -1.3350992478
 H          1.7478233195       -3.6128828702       -1.3592663161
 H          3.4615935729        0.1029781542       -1.3596062096
 H          4.9841126333        2.0357387678       -1.3621699286
 H          9.0250888238        0.1627261388       -0.6478416795
 H         11.4301886464        0.6042056240       -0.9596256300
 H         12.3426846511        2.8637725276       -0.7186225767
 H         10.8646839382        4.7720373274       -0.1810437508
 H          8.7262958720        6.3971604522        0.4167031643
 H          6.4864935392        7.3142404188        0.9240394730
 H          4.5320785938        5.8443891019        1.0484942673
 H          4.7349198777        3.4209133435        0.6481342541
 H          7.5833997251       -0.0157432844        1.3363739874
 H          6.0867451125       -1.9662082729        1.2935288740
 H          4.0826728357       -1.8159348895       -2.9285900067
 H          4.8401873751       -3.5389133171       -4.5272390539
 H          5.3834654734       -5.8045100521       -3.7586694319
 H          5.1879891482       -6.4018085143       -1.3697962223
 H          4.7795010000       -6.5168411875        1.1899514594
 H          4.3266281254       -6.1062226325        3.5836625885
 H          3.6178433654       -3.8876222135        4.3569150784
 H          3.3189313054       -2.0331938716        2.7568429900
 H          2.4688560993       -0.2174580657        1.1564376424
 H          0.1069455896        0.2600183080        1.2239877446
 H         -1.7038164409        0.9544387061        0.6890824718
