69
 energy: -99.524905880307 gnorm: 0.000064947113 xtb: 6.7.1 (edcfbbe)
C            6.28167479053352        0.53933563539630        0.22578918426358
C            4.91690911500106        0.35134065042136        0.91724700411056
C            5.07426857475773        0.48431473880900        2.44508642996173
C            4.39693136043631       -1.03577555292349        0.60600672862180
C            5.13785831813864       -2.14679833281366        0.98135753176845
C            4.69566383817278       -3.43849250743102        0.74982422238404
C            3.46442572523602       -3.63762331626743        0.14121193111005
C            2.70801693962808       -2.55521877263154       -0.24345642194625
C            3.16468792071531       -1.24228511199203       -0.03871294939172
N            2.39262316935480       -0.18104612639690       -0.46775135889310
C            1.17672025490709       -0.44019336214291       -1.14579363129589
C            1.15313141312462       -0.95697930732002       -2.47560078315865
C           -0.05055073563770       -1.18052659441213       -3.07152601157292
N           -1.25149292922933       -0.94271830039348       -2.49401843237193
C           -1.21991490265315       -0.44859116699603       -1.22385721450052
N           -2.46506768991877       -0.17993738879388       -0.59468327893908
C           -2.88491189196705        1.12713955969482       -0.49491088375613
C           -2.21884223117464        2.12366075603821       -1.22570943810749
C           -2.58222576876249        3.44405379104666       -1.11652239520830
C           -3.62278266753739        3.80432760077992       -0.26396799689134
C           -4.30333677481248        2.82294935585152        0.43456790618591
C           -3.97139923013175        1.47982834876167        0.33108293980257
C           -4.76699579668244        0.43912596937599        1.08840949049629
C           -6.24414011247452        0.54184575277697        0.65856753585456
C           -4.63663656135612        0.71512636200069        2.59976124643085
C           -4.27597628484812       -0.96526892087346        0.80929056851516
C           -4.91878509896486       -2.05247192021588        1.38573071490597
C           -4.50273991235747       -3.35283175830762        1.16421183679952
C           -3.40484895642820       -3.59291991329788        0.34489246950755
C           -2.73857886792584       -2.53578981284467       -0.22963651359737
C           -3.16092522366500       -1.21573276395738       -0.01340338908920
C           -0.06857034418823       -0.19060000550393       -0.52885368632230
C            2.78277999940031        1.12662083909773       -0.25319672796832
C            1.98319170958209        2.17530394767729       -0.73668327261676
C            2.32751851226592        3.48925739598620       -0.52183847347233
C            3.48919688920827        3.79321033405032        0.17396416044079
C            4.29688373074787        2.76479796027528        0.62836747092438
C            3.97468476886588        1.43021565825382        0.42760655945126
H            6.69020277593129        1.52275525463935        0.43910282520156
H            6.16808810077853        0.44019302036197       -0.85242375243067
H            6.99281421319380       -0.20742791584583        0.56657878108269
H            5.46493543900802        1.46280594873971        2.70867703502385
H            4.10785003029826        0.35680321096749        2.92977764293699
H            5.75385154895572       -0.27044077611156        2.82989953544812
H            6.08805154097048       -2.00977987509429        1.47415484107353
H            5.29999010358837       -4.28023304133797        1.05159227785751
H            3.09407765233089       -4.63750790438547       -0.02989880789829
H            1.74572165864638       -2.70865700097448       -0.70559294443317
H            2.07976937629380       -1.14973087744998       -2.99414274213030
H           -0.11665092560336       -1.56507254051068       -4.08138224215152
H           -1.42082577335472        1.83185296835163       -1.89102012189523
H           -2.06174370939378        4.19586372758655       -1.69046308652260
H           -3.90544197782371        4.84031919410586       -0.15735766447910
H           -5.11781031762222        3.12047607639316        1.07708345550941
H           -6.63306891739038        1.53772672844874        0.84842974196930
H           -6.33437069147229        0.33297517392303       -0.40583864699942
H           -6.85485614472175       -0.17206814073284        1.20291024134591
H           -4.99789571225878        1.71078335627987        2.84034533751745
H           -3.59329149987957        0.64385254662661        2.90214475649653
H           -5.21102713512660       -0.00722400169693        3.17247715943042
H           -5.76894784950960       -1.88684983410551        2.02932096701141
H           -5.02734028976357       -4.17485465500902        1.62677768948559
H           -3.07136436381432       -4.60309910502773        0.16091179132910
H           -1.88940555237178       -2.71268981564204       -0.86961538237778
H           -0.11287715028534        0.19660554527627        0.47927907938524
H            1.08969155436241        1.93869745411131       -1.29166242367417
H            1.69343037458553        4.27737729397338       -0.89962981583285
H            3.76834942799742        4.82048317641979        0.35149116435374
H            5.20668112042921        3.01831942068949        1.15042316878887
