69
 energy: -99.632546402746 gnorm: 0.000034479529 xtb: 6.7.1 (edcfbbe)
C            6.30140892153917        0.00127285841103       -0.16579098126496
C            4.96839277924169        0.33345086566315        0.53101216235587
C            5.22673899116026        1.13463900224138        1.82108812279696
C            4.27170697370721       -0.96321411368007        0.89947910448152
C            4.89811496768926       -1.85347677083085        1.76153922662674
C            4.30293744560885       -3.03723619575269        2.15739580191157
C            3.03372261854772       -3.34082317339516        1.69901758092817
C            2.38891700046686       -2.47469694603622        0.84068283655657
C            3.00153107360939       -1.29255266138577        0.41397074281875
N            2.33409547634414       -0.44988625322122       -0.46382507852459
C            1.05859743084640       -0.83385563839310       -0.95436577116735
C            0.93950874299398       -1.84813742425497       -1.90785888426289
C           -0.33621343970442       -2.19092407293958       -2.31040070442037
N           -1.43366004877819       -1.59273788437261       -1.88273708970042
C           -1.32913372574319       -0.59864273697036       -1.00085322222423
N           -2.48311200183743       -0.00959762850178       -0.55012347577718
C           -2.47581569047005        1.21699878230486        0.14234658193007
C           -1.73396904850853        2.29339568750601       -0.33215505782234
C           -1.78230618980077        3.50926026345483        0.32216557587681
C           -2.59453419191258        3.65887518048092        1.43302224323511
C           -3.35790558264318        2.59588694118463        1.88592410401285
C           -3.30819813208135        1.36121068747604        1.25569015084418
C           -4.08867283947013        0.13663774933665        1.69487470446561
C           -5.18926961231536        0.47347469116402        2.70113801763483
C           -3.11411661246607       -0.85498125608384        2.36520288864154
C           -4.62604886257982       -0.50087460561065        0.42400969122198
C           -5.90665559164341       -1.01763777284347        0.30251632161295
C           -6.32399206782011       -1.62191637659535       -0.87174022766773
C           -5.46427525500618       -1.70286577721042       -1.95176092715232
C           -4.18851274193736       -1.17640493465116       -1.86101927005257
C           -3.76424853707849       -0.59151722451290       -0.67587691196120
C           -0.07938770547979       -0.20983854586216       -0.48367854254652
C            2.87974380112364        0.75708722685132       -0.87781876353562
C            2.18823798869144        1.55424684687589       -1.79496179182216
C            2.69575437698637        2.76730906082099       -2.21100434206177
C            3.91605929882825        3.20373402145892       -1.72793985756027
C            4.61817718429204        2.40199632522903       -0.84679284944239
C            4.12977989404536        1.17759275020322       -0.41052037119335
H            6.83942547032862        0.90859742551764       -0.42579498217992
H            6.11253148971723       -0.55974678057973       -1.07971480626403
H            6.93697125572632       -0.59865361853236        0.47950884817321
H            5.73624762232419        2.06872438177959        1.60187227063296
H            4.28130432370008        1.36500178208729        2.30972248180231
H            5.84114136106500        0.56645265951177        2.51379493464280
H            5.88170891131884       -1.62073746494170        2.14037061719715
H            4.82143950640180       -3.70902159294245        2.82474930767808
H            2.54014578537811       -4.25033916330876        2.00879412892915
H            1.39433520593158       -2.71570116692970        0.49702565269840
H            1.81149353326897       -2.34958757471088       -2.29492435058021
H           -0.50181458829586       -2.98560412501966       -3.02671556888861
H           -1.12891639155252        2.17526754330803       -1.21901803093983
H           -1.19639392374987        4.33855223173553       -0.04493385975767
H           -2.64122889698197        4.60835706543839        1.94496011550436
H           -3.99224599796569        2.74196126371307        2.74467817795034
H           -4.75479412103695        0.91258505952786        3.59558315263411
H           -5.90816254542376        1.16948995926959        2.27499718312052
H           -5.70782103735019       -0.43169532484670        3.00597520012231
H           -2.67134109466389       -0.40056310794815        3.24929633597696
H           -2.31276709763623       -1.14501538043857        1.69024217716635
H           -3.64941009936871       -1.75391857415266        2.66335987555859
H           -6.59615569102571       -0.96075973960990        1.12877399594939
H           -7.32337429712244       -2.02564167979774       -0.93998584081004
H           -5.78752282522087       -2.16368471037362       -2.87335610044931
H           -3.51500797558631       -1.22267405652769       -2.69917733465237
H           -0.00229523458884        0.55015604138337        0.27771263227087
H            1.24440869074480        1.21308364271611       -2.19231318679782
H            2.13790331371080        3.36598594535772       -2.91632219716523
H            4.32409787087286        4.15257598632637       -2.04215628357988
H            5.57833532245304        2.74541798407245       -0.49289896565991
