  69
        -99.48707874
 C          6.2443808473        0.6857532590        0.0529108286
 C          4.9477318624        0.4438386348        0.8479681432
 C          5.2164150478        0.5920170400        2.3576811740
 C          4.4653754638       -0.9655215205        0.5845564930
 C          5.2737859664       -2.0404015001        0.9184532532
 C          4.8621768998       -3.3519187959        0.7432389181
 C          3.5923017517       -3.6037789707        0.2444020287
 C          2.7707233740       -2.5574174309       -0.1021719752
 C          3.1995753037       -1.2245885810        0.0316682854
 N          2.3688889067       -0.2006817562       -0.3748597754
 C          1.1670484066       -0.5235454388       -1.0428065852
 C          1.1835847437       -1.1756698644       -2.3172028117
 C         -0.0062545423       -1.4838233037       -2.9064337199
 N         -1.2122095271       -1.2121596420       -2.3801606352
 C         -1.2273702018       -0.5835662331       -1.1677395774
 N         -2.4841780368       -0.2627820557       -0.6021525645
 C         -2.8247332605        1.0651195998       -0.4804007146
 C         -2.1041656461        2.0326233780       -1.1996400932
 C         -2.3739126407        3.3704760026       -1.0523920231
 C         -3.3749075222        3.7809175579       -0.1739859976
 C         -4.1217332270        2.8299203153        0.4987706492
 C         -3.8874392754        1.4714660925        0.3523705528
 C         -4.7629266526        0.4660219856        1.0655396205
 C         -6.2237908910        0.7026867590        0.6380546525
 C         -4.6184061546        0.6674797766        2.5858633856
 C         -4.3805214488       -0.9593424894        0.7311017275
 C         -5.1191852599       -2.0128426848        1.2522815225
 C         -4.7989075362       -3.3322384491        0.9897022610
 C         -3.7008403348       -3.6256281279        0.1903675370
 C         -2.9391164283       -2.6034052002       -0.3267700161
 C         -3.2690470488       -1.2640009567       -0.0755501027
 C         -0.0891414247       -0.2386313057       -0.4817947071
 C          2.7125368405        1.1229961686       -0.1833655799
 C          1.8477589055        2.1379467366       -0.6237362129
 C          2.1481832538        3.4650903432       -0.4229922588
 C          3.3298060889        3.8186022809        0.2106868471
 C          4.2045560593        2.8245873404        0.6138102368
 C          3.9265940011        1.4783025021        0.4278545075
 H          6.6224436898        1.6891887703        0.2255542238
 H          6.0523028407        0.5691894232       -1.0119534238
 H          7.0132407444       -0.0242285777        0.3432560551
 H          5.5850444240        1.5866397570        2.5900785283
 H          4.2961860363        0.4267498921        2.9144240367
 H          5.9539596352       -0.1315423926        2.6913607353
 H          6.2535402581       -1.8601739578        1.3335173291
 H          5.5190866087       -4.1655711841        1.0086095429
 H          3.2435932737       -4.6189538612        0.1293760163
 H          1.7792190022       -2.7548940719       -0.4743606647
 H          2.1242817596       -1.3929424887       -2.7968268161
 H         -0.0432743967       -1.9672658294       -3.8735207742
 H         -1.3442623152        1.7040146098       -1.8903412333
 H         -1.8135103840        4.0998405920       -1.6170786419
 H         -3.5805162818        4.8305018135       -0.0332675764
 H         -4.9115046796        3.1657001738        1.1535314198
 H         -6.5352834553        1.7163312315        0.8716551918
 H         -6.3222335830        0.5503237555       -0.4346540861
 H         -6.8934982106        0.0158458125        1.1466707500
 H         -4.9027278850        1.6772509552        2.8680561612
 H         -3.5849945837        0.5039593514        2.8855050612
 H         -5.2480690045       -0.0320765318        3.1283454811
 H         -5.9681887272       -1.8051919629        1.8854154781
 H         -5.3972636501       -4.1266755112        1.4085007795
 H         -3.4402045766       -4.6511627565       -0.0216682115
 H         -2.0905348388       -2.8227961848       -0.9520737066
 H         -0.1630646024        0.2391809425        0.4842057542
 H          0.9386403403        1.8710026416       -1.1340123130
 H          1.4618676583        4.2254110715       -0.7639330885
 H          3.5752125470        4.8560878472        0.3767506004
 H          5.1328298787        3.1152579872        1.0809752735
