69
 energy: -99.523359526182 gnorm: 0.000080373005 xtb: 6.7.1 (edcfbbe)
C            6.27523246613398       -0.24859824753250        0.00051698680090
C            4.92099222116741        0.13255031814967        0.63112866302438
C            5.14532370549723        0.79568215053466        2.00476286761531
C            4.10593044233512       -1.12819787235331        0.82671109560198
C            4.59213423622300       -2.14679694331046        1.63223355214089
C            3.88677979908420       -3.31967947122712        1.84154939094950
C            2.65139940990976       -3.49290226926921        1.22909483399861
C            2.14256811903499       -2.50082882624340        0.42502854377526
C            2.85323675520115       -1.30848694530762        0.20990053266818
N            2.31055127973592       -0.33557896619345       -0.60084956725511
C            1.04609890853856       -0.56476709800395       -1.20834258244573
C            0.94402410758954       -1.20590320090695       -2.48594152716859
C           -0.30013159514259       -1.39272175813536       -3.01026194174976
N           -1.44803521020066       -1.01380195512252       -2.42570346863182
C           -1.35387825311448       -0.41502654753480       -1.19024962289728
N           -2.51978662376252       -0.02068488433111       -0.52369887769434
C           -2.57785666199456        1.26156733695577        0.00748242580821
C           -1.87196510586372        2.30605264333545       -0.60329595964113
C           -1.95662212659491        3.58812059218064       -0.11345380222776
C           -2.75660942040003        3.85328082800384        0.99425620363234
C           -3.46893426900878        2.82578225948257        1.59437930379339
C           -3.39821673975803        1.52646269411496        1.12357648543605
C           -4.08761309881905        0.34935394533636        1.77877845097331
C           -5.23531273052570        0.77332794077151        2.69669904842280
C           -3.03644459477866       -0.39620522947131        2.63565638210225
C           -4.52656141520664       -0.60152731546069        0.68273924547523
C           -5.70051973325458       -1.33436543196033        0.73323548079661
C           -5.99864484429337       -2.28826150416228       -0.22771029050729
C           -5.10208020164430       -2.53905888064311       -1.25467281186419
C           -3.93074923157288       -1.81650076398903       -1.33574653295018
C           -3.64726638747649       -0.82507644574342       -0.39424772408643
C           -0.13943415806597       -0.17458917240803       -0.57996361547859
C            2.96654138241351        0.85078677653587       -0.84934993271513
C            2.37071585210810        1.80458486882207       -1.69060037601101
C            2.99442848284162        2.99873307559321       -1.96237447787612
C            4.23469076996513        3.27313243498481       -1.39865657031111
C            4.82794726051163        2.33622753073441       -0.56986747471085
C            4.22404888377797        1.12243104099423       -0.27788877433816
H            6.89431437516803        0.63190496333326       -0.14470966288201
H            6.11418700448041       -0.72005322666796       -0.96749617919980
H            6.81433560599686       -0.94473960786568        0.63641910261202
H            5.74805608636913        1.69364269696430        1.90514704578342
H            4.18810234015253        1.07015265872017        2.44469811114460
H            5.65353883505240        0.11608966844641        2.68253554486133
H            5.55027296837919       -2.03072377931732        2.11524991656399
H            4.29553367958839       -4.09200985806846        2.47492345610806
H            2.08892089982253       -4.40213973043925        1.38074363015713
H            1.18432476817881       -2.63012396434435       -0.05443201957812
H            1.83460911176559       -1.50375027865836       -3.01606859675479
H           -0.43225727055153       -1.85293197874698       -3.98232707212137
H           -1.27838702928569        2.09144129112023       -1.47937647799147
H           -1.41063877478162        4.38545171103592       -0.59502492330845
H           -2.82700956734382        4.85677482136167        1.38502691416923
H           -4.08491613550257        3.05953866098050        2.44726377607303
H           -4.86366931710632        1.41779370173484        3.48847835691543
H           -6.00389367464336        1.30238068375314        2.13793867154808
H           -5.67596995978033       -0.09691722860970        3.17503778409065
H           -2.65691494378869        0.26284707548679        3.41359988307037
H           -2.20009884524339       -0.72848643112564        2.02469595986968
H           -3.48866342418450       -1.26925620769180        3.10116922681299
H           -6.40258444400729       -1.17743551224253        1.53541865755165
H           -6.91960930539337       -2.84777666984724       -0.15986756911840
H           -5.31592953494990       -3.29697813004937       -1.99350989526993
H           -3.22304483026178       -1.98137366977447       -2.13351648450670
H           -0.10774372936717        0.28848805445260        0.39676968993074
H            1.40973035026108        1.58336668991200       -2.12848742417963
H            2.51904746889403        3.71699172495389       -2.61369015481636
H            4.73406865858001        4.20736858639006       -1.60495492455914
H            5.79201407395652        2.56604843315340       -0.14258398498201
