57
 energy: -86.188486611180 gnorm: 0.000083244744 xtb: 6.7.1 (edcfbbe)
C           -1.33814282882234        3.34282918209775       -2.50445203786246
C           -1.15815011983055        2.10329983098424       -3.09966182980864
C           -1.31039283267359        0.93394065978682       -2.36662989539228
C           -1.64538895802492        1.03477114844696       -1.03433756188044
C           -1.82662786438821        2.28514469922051       -0.42618656487732
C           -1.67397254615015        3.44729792698871       -1.16408192713563
C           -2.15989074590757        2.07229732659771        0.97356792291630
C           -2.44137598518617        2.96717234737143        1.99251836339684
C           -2.73267002775910        2.46801886449462        3.25197686914933
C           -2.74256186711865        1.10230611488986        3.49247059755329
C           -2.46097460156949        0.19911882334772        2.47616897314249
C           -2.17176407436961        0.69222664871505        1.22299292396302
C           -1.84226635991866       -0.07726550035254       -0.03229571040770
C           -2.90267405936234       -1.07779664007274       -0.42203807271310
C           -4.23838842448345       -0.85340238280949       -0.67175570924004
C           -5.03777117683604       -1.93625841009142       -1.01339179667920
C           -4.50438615880509       -3.21334983654151       -1.10110617164069
C           -3.16093422178586       -3.44266728150796       -0.85092181571231
C           -2.35720734200057       -2.36748763850740       -0.50929220357352
C           -0.93951230487933       -2.29013673020797       -0.19845957438713
C            0.04954414494108       -3.25946106974983       -0.16114914700498
C            1.34423735329376       -2.87782739862178        0.14493980474915
C            1.66757698685510       -1.54818185502908        0.41210744607999
C            3.05791337427526       -1.17588710192517        0.72320283960414
C            3.71763013909189       -1.82267450512172        1.74167558277778
C            5.02497609284148       -1.47156929145705        2.09930592302149
C            5.67385271023293       -0.47019924929548        1.43386080649176
C            5.04689839330010        0.20460815603248        0.36596418853252
C            5.71041010788529        1.22522837519701       -0.34743755789150
C            5.10575328320947        1.85474299551772       -1.39796495311707
C            3.81371284003131        1.47694416245632       -1.79216609950454
C            3.14164837447363        0.49532561167518       -1.11879568916884
C            3.72412317922237       -0.15411870726126       -0.00883928567972
C            0.66418575808839       -0.57682478728810        0.39885185676327
C           -0.62076122998046       -0.95526707726728        0.09048002010792
H           -1.21385359705533        4.23912298212188       -3.09478870659442
H           -0.89547528506297        2.04659091287806       -4.14589403356661
H           -1.16926934490331       -0.03246998831715       -2.82917136183344
H           -1.81137697071200        4.41515562467298       -0.70508822275426
H           -2.43533781192880        4.03164812282597        1.81025582224729
H           -2.95579158606155        3.15150921618313        4.05840184055757
H           -2.97286230166137        0.73657745061397        4.48235062794957
H           -2.46961409002895       -0.86510239242925        2.66242943340876
H           -4.65332898163129        0.14176932657420       -0.60268946494332
H           -6.08800497309389       -1.78188123086706       -1.21283994181661
H           -5.14618974377061       -4.04039093198694       -1.36822937757301
H           -2.75008474526328       -4.43904295557006       -0.92048174008136
H           -0.18032278776136       -4.29261970343835       -0.37594538526264
H            2.13198060266018       -3.61752866913503        0.15791398364534
H            3.20760298210310       -2.59963359489148        2.29339732912945
H            5.50922106763750       -1.99364128105443        2.91176887236448
H            6.67819624501299       -0.18325416796631        1.71119506017246
H            6.71343984158850        1.49480559100582       -0.04764895567328
H            5.62046161985171        2.63592104888597       -1.93826673804324
H            3.35186216754400        1.96530421100726       -2.63795384164302
H            2.15493731682922        0.20081351263935       -1.44410270858668
H            0.89715936788098        0.45145450554552        0.63626399433191
