57
 energy: -86.102634623596 gnorm: 0.000164030880 xtb: 6.7.1 (edcfbbe)
C           -1.12724433654187        3.57142889472629       -2.22122786419537
C           -1.11783310332727        2.38555628676953       -2.94018455554188
C           -1.33068590158119        1.16855824480044       -2.30657557574405
C           -1.55405288703370        1.16718025492717       -0.94721518863659
C           -1.56509109385002        2.36319148824986       -0.21510480413479
C           -1.35137214213649        3.57346164106169       -0.85374474259149
C           -1.81589569366134        2.04547752130696        1.18182043361657
C           -1.93758644387658        2.85851921666921        2.29649079968349
C           -2.18935661338615        2.26741160648063        3.52421161513530
C           -2.31669452933897        0.89132271968788        3.63978596136869
C           -2.19389890562712        0.06975741576794        2.52725226107449
C           -1.94440523607467        0.65437522937617        1.30525027238312
C           -1.76765593076049       -0.01626512084950       -0.03513658065232
C           -2.91464481987049       -0.91680172392393       -0.41980013354908
C           -4.24272203614031       -0.59427513941872       -0.55916295750878
C           -5.13787046489973       -1.59930803789270       -0.91354876028338
C           -4.69909623804252       -2.90219107207416       -1.11959168834396
C           -3.36586524725120       -3.23631525847700       -0.98055203987011
C           -2.45840991836963       -2.23771960872468       -0.62892422645068
C           -1.04274709407345       -2.27425931442422       -0.42512898308174
C           -0.10476998757864       -3.31478568671770       -0.48635948432298
C            1.21474174258203       -3.04857352999902       -0.24825791809158
C            1.69096352717834       -1.72782799007128        0.01712376005926
C            3.07011168491754       -1.44541919581342        0.14556284722891
C            3.97235027336277       -2.43413032343898        0.67737712790672
C            5.20921390345162       -2.08767637787695        1.12798887545018
C            5.67437242785491       -0.76464328693772        1.01861262509301
C            4.89973669654564        0.21154052174621        0.36140648703877
C            5.39174305516777        1.50808395092384        0.14240600089051
C            4.68110108705666        2.42582282968423       -0.62115068206586
C            3.48902514713492        2.05133546235134       -1.20349781091630
C            2.97110909172470        0.77113868228645       -0.98227523944699
C            3.61465683128605       -0.13731073919233       -0.14802997735569
C            0.71265062065923       -0.69511717702570        0.14430535911484
C           -0.59749729567560       -0.97189037506154       -0.07916537654602
H           -0.95769330688018        4.50634736700197       -2.73571328983401
H           -0.94102505149863        2.40863103869102       -4.00560181155401
H           -1.32001392440106        0.24375636953506       -2.86549418723198
H           -1.35633038948281        4.49966245108088       -0.29835112530791
H           -1.84056925870603        3.93078637202377        2.21154858086827
H           -2.28921530968009        2.88635045201672        4.40409511753182
H           -2.51405535614932        0.45324979315246        4.60717274448081
H           -2.29248278524061       -1.00244272363373        2.61677469494316
H           -4.58514920337645        0.41758235460966       -0.39692020276539
H           -6.18549197245077       -1.36450128512424       -1.02886782505836
H           -5.41484426656723       -3.66407630650905       -1.39310927464566
H           -3.02970829930771       -4.24965759768843       -1.14249794696639
H           -0.42449817809152       -4.31683658419872       -0.73309511998599
H            1.93263148808760       -3.84845007883923       -0.34413161532306
H            3.61940829098318       -3.44419678085366        0.81037121770117
H            5.84748097661573       -2.83112900316669        1.58317743636233
H            6.65975054367785       -0.50610225905889        1.37470801829644
H            6.34208327734141        1.78407021785225        0.57587103210933
H            5.07549481502579        3.41992217624136       -0.77181164385720
H            2.94253382547119        2.73958706620689       -1.83092300436358
H            2.06644088203497        0.48188168362684       -1.49628524152730
H            1.01720238406123        0.28809683985272        0.47115276127050
