57
 energy: -86.102634880864 gnorm: 0.000084277601 xtb: 6.7.1 (edcfbbe)
C           -1.07733531383388        3.52864012327317       -2.29575200491828
C           -1.11340767654677        2.32029342448088       -2.97535700338096
C           -1.34603793459457        1.13068518712077       -2.29815186052093
C           -1.54281346966761        1.17940834247377       -0.93554689996420
C           -1.50763597446592        2.39832041699429       -0.24306549280714
C           -1.27453542572706        3.58103749207973       -0.92511355600570
C           -1.73732887104828        2.13265220996664        1.16830700312177
C           -1.81582491178727        2.98424508290123        2.25778102988326
C           -2.05588627111795        2.43977079703289        3.50920383940158
C           -2.21381840788483        1.07173716396895        3.67275955201223
C           -2.13460392715347        0.21168620486902        2.58566449733680
C           -1.89710576960371        0.74995824851354        1.34019586535192
C           -1.76718558892419        0.03206765975607        0.01911931028286
C           -2.94548528951298       -0.84997907325299       -0.30979643286471
C           -4.26798637541482       -0.49752437374791       -0.42813806790169
C           -5.19672093178689       -1.48969726084373       -0.72815846464376
C           -4.79621916271833       -2.80951599694484       -0.90177156486280
C           -3.46886447270889       -3.17371243038269       -0.78339715506055
C           -2.52805676252193       -2.18843640842727       -0.48602777130273
C           -1.10924666733179       -2.25533510324735       -0.31410642542465
C           -0.19921175226195       -3.32101858390214       -0.36400241998113
C            1.13228452573882       -3.08109045256392       -0.16843467669950
C            1.64791172195217       -1.76496774705598        0.04063890967500
C            3.03656957259112       -1.51284901138565        0.11967936863577
C            3.93116946732762       -2.50688642513292        0.65450359143298
C            5.18928080967094       -2.17762929860028        1.05660222491917
C            5.68205895657441       -0.87039245998044        0.89241736514493
C            4.91085150050406        0.10428187433515        0.22895710693372
C            5.42659883855531        1.38108522887764       -0.04463012958796
C            4.71485611463267        2.29271692628356       -0.81443301725130
C            3.49695015803043        1.93030575802629       -1.34902937767529
C            2.95585629149698        0.67051759391717       -1.07302557757964
C            3.60273798723133       -0.22797207846431       -0.23060777328998
C            0.69877693987137       -0.70455639978118        0.16097277001720
C           -0.62310867318534       -0.95468598808790       -0.02080915185032
H           -0.89212036654849        4.44132583180908       -2.84362783975644
H           -0.95589436806886        2.30392749925906       -4.04391985777655
H           -1.37057675554761        0.18828256110545       -2.82641242165524
H           -1.24368828876968        4.52449841484441       -0.40045777951787
H           -1.69447425763000        4.05041964856288        2.13562088646030
H           -2.12191164000639        3.08924265983833        4.37007906037096
H           -2.40102004537090        0.67034707609954        4.65791273092271
H           -2.25778297549984       -0.85420078563757        2.71234162445171
H           -4.58057132276443        0.52761660168508       -0.29096000810450
H           -6.24061761996504       -1.23149153238189       -0.82599449164404
H           -5.53751139686312       -3.56086361679791       -1.13316491591235
H           -3.16263199623484       -4.20020342901257       -0.91991892750351
H           -0.54983984958954       -4.32202419740711       -0.56962353455749
H            1.82722820908305       -3.90185630990549       -0.25643393006022
H            3.55874573743436       -3.50345130928731        0.82943668338487
H            5.82354047307360       -2.92255562053990        1.51495985006403
H            6.68387373606531       -0.62560722425401        1.21033191721368
H            6.39602380761614        1.64648956933879        0.35162273841100
H            5.12770374724700        3.27201381308688       -1.00691827498301
H            2.94777439453661        2.61261208906663       -1.98059573675024
H            2.02965321858060        0.38821641779282       -1.55133610925238
H            1.03573440785433        0.28024628337500        0.44894228085865
