  80
       -125.50987591
 C          1.3185041446        4.4042428240       -0.7500265390
 C          0.6030639166        3.3543945059        0.0469509451
 C         -0.7826810052        3.3181159269        0.0329929074
 C         -1.5124485810        2.3570017651        0.7233039135
 C         -2.9850942318        2.4050413998        0.6439915647
 C         -3.6596504798        3.5738615712        0.9875011737
 C         -5.0382454146        3.6397037074        0.9002474201
 C         -5.7653778470        2.5465626358        0.4654201397
 C         -5.0999806436        1.3798544968        0.1026431413
 N         -5.8293372433        0.2688575786       -0.3543875919
 C         -6.7794200837        0.2858901035       -1.3590573668
 C         -7.1934478358        1.3361305430       -2.1653613465
 C         -8.1570282801        1.0728294256       -3.1199697762
 C         -8.6946781701       -0.2026212568       -3.2805160107
 C         -8.2698158534       -1.2565795421       -2.4970204684
 C         -7.3018520032       -1.0157071849       -1.5308067070
 C         -6.6300236117       -1.8521815546       -0.5756645738
 C         -6.7213476882       -3.1967231859       -0.2610541527
 C         -5.9153136625       -3.6916987669        0.7609455062
 C         -5.9783906678       -5.0600953976        1.1014861125
 N         -6.0290168188       -6.1728352579        1.3768097027
 C         -5.0438651840       -2.8485064885        1.4701063082
 C         -4.9465563853       -1.5089524860        1.1653352235
 C         -5.7282627282       -1.0134317730        0.1275746914
 C         -3.7149742552        1.3122608607        0.1919483454
 C         -0.8333102572        1.3912376773        1.4705210928
 C         -1.5519025063        0.3484716552        2.2741315779
 C          0.5517417129        1.4258673150        1.4824234328
 C          1.2821092132        2.3877949614        0.7930296652
 C          2.7534989464        2.3430666176        0.8846301909
 C          3.4889576516        3.4447249055        1.3131140527
 C          4.8659456215        3.3685159144        1.4190098549
 C          5.5308306304        2.1968425004        1.1063375690
 C          4.8049909693        1.0894307457        0.6792936812
 N          5.4650458779       -0.1105268808        0.3663119908
 C          5.1474919772       -1.3572536917        0.8729883760
 C          4.1750778856       -1.7139556653        1.7957340369
 C          4.0854781890       -3.0453398195        2.1545177454
 C          4.9439630212       -4.0033572651        1.6190686206
 C          5.9275391922       -3.6512039985        0.7168896783
 C          6.0358793042       -2.3185310749        0.3409326112
 C          6.9275739866       -1.6071644792       -0.5322958411
 C          7.9834513587       -2.0003410453       -1.3356359556
 C          8.6376189029       -1.0280157948       -2.0877277900
 C          9.7211384404       -1.3943733085       -2.9149433349
 N         10.6023718200       -1.6903777452       -3.5876244490
 C          8.2310339138        0.3160477565       -2.0473761788
 C          7.1810883419        0.7177438853       -1.2517083073
 C          6.5378216035       -0.2444733383       -0.4809248471
 C          3.4224018074        1.1660919704        0.5695126078
 H          2.3204721340        4.0805186730       -1.0202783570
 H          0.7630867642        4.6292205316       -1.6581914983
 H          1.4013996848        5.3274817933       -0.1759458342
 H         -1.3197002237        4.0527554208       -0.5511783332
 H         -3.0962909560        4.4261729567        1.3372244422
 H         -5.5531440776        4.5466706628        1.1803687956
 H         -6.8429192824        2.5860193824        0.4150962200
 H         -6.7712052963        2.3238470708       -2.0590790854
 H         -8.4991436618        1.8735792392       -3.7586207920
 H         -9.4485159909       -0.3658586475       -4.0358248673
 H         -8.6753034449       -2.2479583059       -2.6303087183
 H         -7.3999470998       -3.8501867423       -0.7879725080
 H         -4.4484032253       -3.2670768878        2.2680322563
 H         -4.2909809833       -0.8627354946        1.7272423379
 H         -3.2036426213        0.4140029959       -0.1208624324
 H         -1.6943412102       -0.5579848821        1.6845227974
 H         -2.5261788079        0.7089380069        2.5969019634
 H         -0.9686257192        0.0821785272        3.1531461218
 H          1.0868624414        0.6914376071        2.0685667145
 H          2.9764741280        4.3548953295        1.5835861389
 H          5.4273995179        4.2259632602        1.7595245912
 H          6.6032781114        2.1282603037        1.2089624939
 H          3.5186154951       -0.9753317359        2.2300200884
 H          3.3363815618       -3.3498637175        2.8701664637
 H          4.8412622766       -5.0331926154        1.9254977037
 H          6.6031134467       -4.3901744657        0.3139156413
 H          8.2946703324       -3.0328118419       -1.3859036307
 H          8.7553455854        1.0371242553       -2.6568355608
 H          6.8630683639        1.7490878907       -1.2373242510
 H          2.8660324102        0.3117559453        0.2118584921
