71
 energy: -118.882019089716 gnorm: 0.000042618399 xtb: 6.7.1 (edcfbbe)
O            1.53575020179878       -3.84595160719313        2.16039123530001
C            1.30271584620310       -2.76776948628740        1.54152626574181
C           -0.02215462206884       -2.35296057207506        1.27615386369338
C           -0.48505652638301       -1.09256462297480        0.89489278615220
O            0.44313278926298       -0.08037544295100        0.75860470843307
C           -1.85328514934476       -0.80142554986215        0.63358712382458
C           -2.91059991963454       -1.66702821356489        1.02519638090455
C           -4.22134873449552       -1.36191868317805        0.78183415288337
C           -4.57155452768514       -0.17160781906465        0.12848745751955
N           -5.92654871338214        0.14195807997186       -0.12183152287501
C           -6.50909847503198        1.25988473369442        0.45826758155925
C           -5.81542310668592        2.08585533281643        1.34313599290143
C           -6.42512281567102        3.19669818203914        1.89556441251388
C           -7.74072108901790        3.50467223285790        1.58676106936084
C           -8.45758642354525        2.67921636049618        0.73706644779432
C           -7.85486554383040        1.56199961774702        0.18147050947758
O           -8.62665252236084        0.76991575971040       -0.62143116253979
C           -8.04659989326220       -0.33909159011243       -1.17070957826962
C           -8.84083940534763       -1.13224879185710       -1.98313009103693
C           -8.30563007120024       -2.25177648647275       -2.59753932119995
C           -6.96772023511924       -2.56322209461659       -2.41291686180772
C           -6.16863187790181       -1.77799094965285       -1.60307769997437
C           -6.69630932331400       -0.66506509021675       -0.94780810573790
C           -3.55351911425576        0.69654428810366       -0.28065297463229
C           -2.24020651696678        0.39267328211249       -0.03904553957832
C            2.45613121104205       -1.95249731504509        1.09029491195298
C            3.53963548093770       -1.76123094304997        1.94786461054712
C            4.64373156107642       -1.04035398335911        1.54352770798265
C            4.68730134036698       -0.51509026361623        0.25595300813904
N            5.81161000484082        0.25099202077980       -0.16166059655292
C            5.71210530786078        1.62907774715344       -0.26596531737420
C            4.53384356356284        2.31084720715413        0.03266989391782
C            4.47370580806252        3.68825263285099       -0.07853044487792
C            5.58447069780931        4.41110743830518       -0.48350272765047
C            6.76774614447751        3.75168954199110       -0.77283675415474
C            6.83771957133727        2.37247660297050       -0.66414892898331
O            8.03656433267450        1.77817459010677       -0.94930860477593
C            8.11913181934894        0.41735805761935       -0.83436154498976
C            9.33735830820047       -0.17418871133326       -1.12482404713715
C            9.47846519652437       -1.54956507191155       -1.03909806225629
C            8.39606977695330       -2.33215145952227       -0.66963415970096
C            7.17609765840904       -1.75006962753494       -0.37657484839528
C            7.01828803392909       -0.36712185714614       -0.44492606492263
C            3.63335875944371       -0.73595754605182       -0.62490151531517
C            2.53037620080850       -1.45346422873710       -0.21140674932296
H           -0.76263078256885       -3.10632471719810        1.50026366979261
H           -0.02527262630251        0.76365069359368        0.71000642725450
H           -2.68100029144142       -2.57484156087800        1.55858065505042
H           -5.00327135331116       -2.02948753023559        1.11476063200668
H           -4.79728725645509        1.84285551761095        1.60069303534325
H           -5.86730988122455        3.82166249650146        2.57533841763728
H           -8.21369516733392        4.37430094084716        2.01422884789516
H           -9.48929273102837        2.87731877729064        0.49404620656843
H           -9.87200796258569       -0.84942940434204       -2.12288882962562
H           -8.92886823564815       -2.86744004573452       -3.22623998105830
H           -6.53749256013700       -3.42168200718218       -2.90465150402471
H           -5.12537613950825       -2.01843687929022       -1.47667223807225
H           -3.81174426886147        1.59973215883759       -0.81524845863922
H           -1.48776669491688        1.06463754574951       -0.42943741662514
H            3.49129340344096       -2.18083059990831        2.94251086717384
H            5.47104963733325       -0.87544855038727        2.21863181500864
H            3.67082267727473        1.75045026846853        0.35501699772771
H            3.55199173816860        4.19705759240624        0.15674258501447
H            5.53610391869051        5.48487390271850       -0.57015455814430
H            7.65137305559897        4.28681210589068       -1.08193005584139
H           10.15850180795173        0.46050214718961       -1.41743971605131
H           10.42942640722207       -2.00466326150059       -1.26565200747877
H            8.49678618587115       -3.40456839260164       -0.60909628810784
H            6.33375225802271       -2.36182924563770       -0.09474703629575
H            3.68945993193855       -0.34650801624474       -1.63131594673111
H            1.72043852623325       -1.64203416719304       -0.89934110907080
