71
 energy: -118.949613979080 gnorm: 0.000040035729 xtb: 6.7.1 (edcfbbe)
O            1.39414952661250       -4.50169966418259        0.16387650499241
C            1.24000856907432       -3.28608715484881        0.08623397723804
C           -0.08588162837463       -2.70030992930023       -0.01942004630497
C           -0.44799825839188       -1.44276198048437        0.33134510507239
O            0.44041296368675       -0.57120748653916        0.84529332278364
C           -1.84607456822784       -0.99967296444914        0.21786500605142
C           -2.38897883491379       -0.12459256261165        1.16227695036582
C           -3.70136863699846        0.29132201555752        1.06705667221026
C           -4.50073809618476       -0.14610000601238        0.01358872079278
N           -5.84095540792124        0.27822529825932       -0.08390561145521
C           -6.14747460932952        1.63298861855393       -0.24429385837768
C           -5.16469035155481        2.60137855260198       -0.41117440351713
C           -5.50115502921358        3.93717697874194       -0.57106996021619
C           -6.82522598211224        4.32726745549033       -0.57930468980244
C           -7.81992846449903        3.36885428816759       -0.44868845136072
C           -7.48873962626359        2.03556221488955       -0.29091007829823
O           -8.53078972511209        1.14248289319699       -0.20116972599419
C           -8.21258197338515       -0.18901666894241       -0.06535488443679
C           -9.26943836697618       -1.07650761248502        0.02170987736115
C           -9.03340390293506       -2.43262234522611        0.19455169881357
C           -7.73410618068498       -2.88785173188972        0.29477464131021
C           -6.67110689236219       -2.00160201860211        0.20638639824416
C           -6.88892149068405       -0.64417717129491        0.00299961619179
C           -3.96175399669883       -1.00887698910638       -0.93991651407727
C           -2.65338653884528       -1.43266641008348       -0.83574018129250
C            2.41734028190594       -2.37563663529409        0.07511186061589
C            3.45226794953782       -2.58233494846292        0.98189978289798
C            4.56824634462941       -1.76856407216170        0.97074803114703
C            4.67700644562952       -0.75321067865716        0.02574201732690
N            5.81572175973086        0.08569019538236        0.00743389226618
C            5.69523363109360        1.44390295459012        0.30602832591461
C            4.48503896899927        2.01603184838750        0.67923480871016
C            4.39938026800757        3.36918853327150        0.97153310903098
C            5.52135602665473        4.17039669685483        0.90666391905877
C            6.74299975503819        3.60898226651125        0.56180291807892
C            6.83349415974870        2.26075895985962        0.27032074961950
O            8.08299689688435        1.77204654227486       -0.03793846410344
C            8.18475496162477        0.42758770536887       -0.31660239921149
C            9.44298641317315       -0.05275444870136       -0.62724862724555
C            9.62283302303452       -1.39201616126865       -0.94431056754513
C            8.53255777457510       -2.23818676651754       -0.96207184254679
C            7.26815529609093       -1.76090307688910       -0.65011409069254
C            7.07491880852906       -0.42853948135288       -0.30586068961547
C            3.65927347891260       -0.56509523495098       -0.90594425038834
C            2.53621624224245       -1.36673868972597       -0.87737505157126
H           -0.86287115244507       -3.39678819951583       -0.29532260722957
H            0.01375526227865        0.28264233365297        1.01297569692283
H           -1.80192242144304        0.19761478240211        2.01154782822053
H           -4.11833486136021        0.95055723614689        1.81353126369049
H           -4.12683930088697        2.30892446389689       -0.42459212129450
H           -4.71620478542529        4.66773503727743       -0.69288873062522
H           -7.09402768098080        5.36511089190615       -0.69793923511021
H           -8.86497980047949        3.63561573572539       -0.47138805996326
H          -10.27211630037906       -0.68352837911206       -0.04131618976424
H           -9.86423955121984       -3.11738611064714        0.25906340806062
H           -7.53329838400724       -3.93707036746966        0.44819241943423
H           -5.66300056293101       -2.37158013271816        0.30520170005363
H           -4.57529477821319       -1.33623734203491       -1.76576126044364
H           -2.23990287118909       -2.08236095749451       -1.59092233678211
H            3.36264537167322       -3.37807734232254        1.70691757870191
H            5.36068487680569       -1.91637588751278        1.68958888765343
H            3.60601759707560        1.39516793510660        0.74728057212944
H            3.44622050493749        3.78861489932643        1.25481356904168
H            5.46086592273363        5.22402410593097        1.12991272874360
H            7.64279299763276        4.20261577386553        0.51804364167561
H           10.27025673134715        0.63969926391297       -0.61929336345911
H           10.60900768344897       -1.75819746181953       -1.18294777436482
H            8.65304136140034       -3.27886914778219       -1.22176415971046
H            6.42212155764905       -2.42941977391929       -0.68095837491167
H            3.75830998404797        0.21210872935900       -1.64943980929148
H            1.75466161612993       -1.22465321405260       -1.60860078934543
