71
 energy: -118.949365141433 gnorm: 0.000127212767 xtb: 6.7.1 (edcfbbe)
O            1.49033390150700       -4.12396687570530        1.66146272414812
C            1.29869853295037       -3.00232860476356        1.20116973035370
C           -0.04762214856105       -2.51182586759797        0.94920824518141
C           -0.44884853206455       -1.21931171467025        0.92289116844254
O            0.42108997486146       -0.20627210849447        1.10503008449955
C           -1.85791206318952       -0.86580406720428        0.68741398660388
C           -2.90142427706773       -1.65323704653772        1.17624679169391
C           -4.21506137284214       -1.31183799340683        0.93007563501353
C           -4.52035062922559       -0.17677047567948        0.18052112212831
N           -5.86247352825140        0.16136545270131       -0.08488939772577
C           -6.40274612073181        1.36113185498994        0.38785356404070
C           -5.67982398510047        2.23759271450672        1.18820935812313
C           -6.24575987733358        3.41990139968518        1.64112002190396
C           -7.54700620844447        3.74216226697671        1.31222725626200
C           -8.29413591098929        2.86198016810004        0.54282048927760
C           -7.73468574680308        1.68052297424978        0.09192026652422
O           -8.55075747562454        0.84449208850399       -0.63399026250306
C           -8.00882805556554       -0.33925112213494       -1.07827345632023
C           -8.83865633917616       -1.16947447933790       -1.80916449481048
C           -8.35731688577630       -2.36473229719797       -2.32340799621685
C           -7.03710387755709       -2.71007620706798       -2.11581919194822
C           -6.20223243465085       -1.88191376503816       -1.38072441184682
C           -6.67722050157192       -0.69779890230007       -0.82946785341481
C           -3.48505625511629        0.61766004063185       -0.30586068614835
C           -2.17197719422690        0.28124408938913       -0.04680471058485
C            2.44441021393394       -2.11861643682379        0.85659220489950
C            3.52911270722355       -2.02576422565945        1.72338708372588
C            4.61676716628601       -1.23654589085730        1.40406132283414
C            4.64498548950941       -0.55191789620854        0.19315320114218
N            5.75394691363024        0.25976802621743       -0.14218313671372
C            5.60831011415862        1.64399912644389       -0.24542874953787
C            4.40493283841107        2.28407481808501        0.02526205991982
C            4.29448001518736        3.66267409525292       -0.08094733600474
C            5.38485994070097        4.42446764857673       -0.44939172631810
C            6.60047923777974        3.80255022752028       -0.69874465864503
C            6.71602465968477        2.42912685254217       -0.59282480147050
O            7.95941116668379        1.88738807223892       -0.82900547972248
C            8.08647631046625        0.52136676859236       -0.71187950519848
C            9.33733468115043       -0.01381656104188       -0.95532454623656
C            9.53833653090954       -1.38535673903968       -0.88310071456352
C            8.47618244195795       -2.21298265937497       -0.57996631975829
C            7.21946247031088       -1.68045100839024       -0.33318224612773
C            7.00687646467285       -0.30796914073738       -0.37782914732342
C            3.57695511021869       -0.66923885699944       -0.69256771928991
C            2.48378413772008       -1.44327042733456       -0.36089550155364
H           -0.79796306135197       -3.28223183397398        0.85989059593766
H           -0.05211728238236        0.63868161146416        1.13792551988596
H           -2.68041926885152       -2.52027093955677        1.77846534364226
H           -5.01674271780620       -1.91871791086066        1.32339697182964
H           -4.66803047712462        1.99111232415151        1.46807567134838
H           -5.65845424972922        4.08380662046062        2.25674216340404
H           -7.99120544958549        4.66277929140974        1.65659080609262
H           -9.32053839460526        3.07118750518871        0.28495588893906
H           -9.85891892282345       -0.85795896177778       -1.96980539143526
H           -9.01321158370183       -3.00719454259299       -2.88952294472174
H           -6.64112648368083       -3.62611864150946       -2.52665176068938
H           -5.16916881532824       -2.15868356874078       -1.24225044292935
H           -3.71626350914650        1.49263197471038       -0.89462502705936
H           -1.38545225429845        0.89247314764895       -0.46789520025862
H            3.50053657319710       -2.56662843064733        2.65802564336207
H            5.44932746885117       -1.14893403777949        2.08647781627470
H            3.55166751788735        1.69824065221108        0.32801996884051
H            3.34728774922122        4.13424253914874        0.13186177061101
H            5.30533281494050        5.49671013662491       -0.53676054810989
H            7.47625636524768        4.36957012265909       -0.97334167556084
H           10.14231986587289        0.65979923715602       -1.20487746362116
H           10.51856545130763       -1.79334360808322       -1.07348010000014
H            8.61268629025753       -3.28271131255164       -0.53495631168628
H            6.39428210688155       -2.33845804307030       -0.10994232884839
H            3.61477026236683       -0.15126308881541       -1.63964653019812
H            1.66413533302016       -1.54463299341003       -1.05619617236995
