  71
       -118.89944697
 O          1.4684215364       -4.1249783011        1.6559957085
 C          1.2969758821       -3.0104692209        1.1866858338
 C         -0.0486917296       -2.5037828726        0.9215537997
 C         -0.4471945268       -1.2141729976        0.9388296535
 O          0.4265342541       -0.2040035368        1.1611595656
 C         -1.8546301234       -0.8552738216        0.7032893632
 C         -2.8977799296       -1.6568395816        1.1691037369
 C         -4.2108826367       -1.3182614388        0.9212758269
 C         -4.5189721295       -0.1709994357        0.1908008833
 N         -5.8582059941        0.1624827041       -0.0769734055
 C         -6.4022548443        1.3666805406        0.3839697200
 C         -5.6832355256        2.2534289383        1.1753588337
 C         -6.2542868134        3.4373385577        1.6172629507
 C         -7.5573252586        3.7490575236        1.2867941645
 C         -8.3009937292        2.8575588307        0.5284286163
 C         -7.7365566543        1.6747401939        0.0876185008
 O         -8.5476087498        0.8290590160       -0.6249278489
 C         -8.0020922775       -0.3480757541       -1.0703808383
 C         -8.8267894492       -1.1801462477       -1.8047936404
 C         -8.3394621748       -2.3708955974       -2.3215341455
 C         -7.0181612570       -2.7108788056       -2.1145517714
 C         -6.1878945506       -1.8809408640       -1.3766733375
 C         -6.6696150587       -0.7019132160       -0.8224094039
 C         -3.4834516410        0.6369367239       -0.2733929422
 C         -2.1707842494        0.3026727853       -0.0112880575
 C          2.4449414715       -2.1318129626        0.8440538194
 C          3.5522356047       -2.0884002515        1.6859083570
 C          4.6397711161       -1.2975765430        1.3749164005
 C          4.6463303450       -0.5585288563        0.1956156943
 N          5.7516764202        0.2552366490       -0.1294661683
 C          5.5993621347        1.6379028619       -0.2472718153
 C          4.3947574476        2.2766436867        0.0196519626
 C          4.2787798439        3.6531657176       -0.1036516293
 C          5.3650018420        4.4144448742       -0.4837074649
 C          6.5830426260        3.7950911046       -0.7231348617
 C          6.7049715992        2.4237643352       -0.6000486791
 O          7.9486149681        1.8875053352       -0.8223498843
 C          8.0828682289        0.5261833775       -0.6988990562
 C          9.3370269554       -0.0030598888       -0.9384485708
 C          9.5450621500       -1.3726985360       -0.8639957311
 C          8.4861330328       -2.2056012463       -0.5651924511
 C          7.2261474122       -1.6795636656       -0.3221816678
 C          7.0079795881       -0.3083483297       -0.3639683888
 C          3.5547175099       -0.6273034760       -0.6671817966
 C          2.4619540728       -1.4031560940       -0.3426202824
 H         -0.7999988033       -3.2666841923        0.7894661461
 H         -0.0419406678        0.6351934502        1.2683222859
 H         -2.6743885296       -2.5338605076        1.7562401946
 H         -5.0119936943       -1.9358238415        1.2991165539
 H         -4.6701718755        2.0140061767        1.4597085069
 H         -5.6690630885        4.1090764647        2.2260542619
 H         -8.0050125746        4.6702409550        1.6238498316
 H         -9.3286232271        3.0581093445        0.2710643832
 H         -9.8476245301       -0.8726937231       -1.9655434393
 H         -8.9906998635       -3.0153297376       -2.8902262867
 H         -6.6167274980       -3.6227484541       -2.5286968888
 H         -5.1525499351       -2.1519865232       -1.2402423363
 H         -3.7146234886        1.5193309268       -0.8515645782
 H         -1.3825032992        0.9254387379       -0.4139530650
 H          3.5393775058       -2.6698995678        2.5953323095
 H          5.4887567447       -1.2454183105        2.0403702216
 H          3.5434731373        1.6933130509        0.3347002763
 H          3.3299708408        4.1230508044        0.1051993687
 H          5.2790064419        5.4847202505       -0.5851230879
 H          7.4565885000        4.3620653295       -1.0023562586
 H         10.1376360002        0.6743126592       -1.1887770128
 H         10.5273620406       -1.7766180827       -1.0509154744
 H          8.6270307273       -3.2745633729       -0.5214441399
 H          6.4035108425       -2.3431605796       -0.1069274959
 H          3.5762925265       -0.0698820642       -1.5923142579
 H          1.6242742816       -1.4653877477       -1.0211444194
