  94
       -131.51292847
 C         -4.2799632307        3.3312597677        3.7820680872
 C         -4.1200214857        3.7523070374        2.3263686817
 C         -3.6859072002        2.5840973267        1.4455547250
 C         -3.5660172850        2.9942304999       -0.0275956744
 N         -3.0748292698        1.9178609853       -0.8603702363
 C         -4.0684940183        1.0857797420       -1.5038197193
 C         -4.2503902964        1.4009405103       -2.9966330874
 C         -4.8170865427        2.7925966741       -3.2792093123
 C         -6.2806975221        2.9425313324       -2.8791254701
 C         -1.7419793177        1.6452879632       -0.9572717518
 C         -1.2651275362        0.5743818161       -1.7468780284
 C          0.0726074756        0.3095401344       -1.8432333697
 C          1.0342868819        1.0809611195       -1.1767009270
 C          2.4028666353        0.6859335040       -1.1867262887
 N          3.3285159630        1.3216371073       -0.5588835942
 C          4.5549977484        0.7654123646       -0.2862174214
 C          5.7263995308        1.4483427753       -0.5773030683
 C          6.9663458292        0.9099765771       -0.2468482633
 C          8.1451159502        1.6197221049       -0.5609124530
 N          9.0910226874        2.2142556446       -0.8197091475
 C          7.0373074537       -0.3422655567        0.3900039916
 C          8.2874463936       -0.9077031693        0.7205271532
 N          9.2914004738       -1.3872172955        0.9983523206
 C          5.8663715481       -1.0249464396        0.7046283580
 C          4.6259651028       -0.4858731844        0.3979621681
 N          3.4699963338       -1.1824728022        0.6518544937
 C          2.4668263116       -0.6568289144        1.2625962614
 C          1.1478285930       -1.1899134080        1.2061083547
 C          0.0931436283       -0.5277072196        1.8495495503
 C         -1.2098581079       -0.9029488525        1.6782313212
 C         -1.5507449285       -1.9781172333        0.8268807028
 N         -2.8497515553       -2.3306698609        0.6172258050
 C         -3.2056677254       -3.5086298231       -0.1423820244
 C         -3.2829096707       -3.2239662370       -1.6483056811
 C         -3.5791601743       -4.4753510230       -2.4745311366
 C         -2.4098220003       -5.4525185177       -2.5189613437
 C         -3.9476087981       -1.5492297471        1.1388674229
 C         -4.3348587100       -1.9616999930        2.5666291820
 C         -5.2594524405       -0.9508303327        3.2432264146
 C         -6.5954919911       -0.7849102563        2.5279378787
 C         -0.4992470739       -2.6598577362        0.2015993483
 C          0.8217503999       -2.2911884097        0.3813758008
 O          1.7692060777       -2.9815179578       -0.2707315995
 C          0.5709415878        2.1581329411       -0.3873483765
 O          1.4199458559        2.9403041264        0.2958316234
 C         -0.7847563533        2.4136206630       -0.2819897617
 H         -3.3452822447        2.9305568956        4.1680922280
 H         -5.0482376314        2.5666479861        3.8786499546
 H         -4.5665460198        4.1816279796        4.3954168740
 H         -5.0678009919        4.1518712695        1.9578448345
 H         -3.3768788209        4.5495203782        2.2590996082
 H         -4.4180355090        1.7767909231        1.5310798165
 H         -2.7227247594        2.2024195430        1.7901121819
 H         -2.9100217130        3.8627204568       -0.1205232070
 H         -4.5491661148        3.2948291388       -0.3945530424
 H         -5.0171768815        1.2272921703       -0.9831301447
 H         -3.7934603228        0.0327773292       -1.3923155697
 H         -4.9148032170        0.6481485203       -3.4270649705
 H         -3.2813281465        1.3171619351       -3.4902687574
 H         -4.7313576472        2.9831530166       -4.3510875189
 H         -4.2096360410        3.5409965987       -2.7676229963
 H         -6.4211671861        2.8171889200       -1.8078820318
 H         -6.6449174978        3.9303460206       -3.1507772782
 H         -6.8913067712        2.2013695101       -3.3905135375
 H         -1.9480145590       -0.0601073237       -2.2844343552
 H          0.4070971731       -0.5256952166       -2.4416593242
 H          2.6274754472       -0.2326395330       -1.7400755900
 H          5.6697467996        2.4017692131       -1.0810927662
 H          5.9168912143       -1.9791270709        1.2075930482
 H          2.5787077029        0.2753747375        1.8273109125
 H          0.3261140608        0.3109765020        2.4898693894
 H         -1.9716713959       -0.3615379608        2.2118094862
 H         -2.4819871936       -4.2994253047        0.0587968048
 H         -4.1790934235       -3.8606434879        0.2094641376
 H         -2.3393911727       -2.7845844875       -1.9768614370
 H         -4.0708260808       -2.4861698297       -1.8233827546
 H         -4.4602491782       -4.9776270238       -2.0682760200
 H         -3.8168402230       -4.1675473324       -3.4951960025
 H         -1.5123208725       -4.9563023454       -2.8814867321
 H         -2.6367128526       -6.2779771793       -3.1892310126
 H         -2.2018050169       -5.8677046005       -1.5362059916
 H         -4.8018148839       -1.6867777219        0.4718521341
 H         -3.6808678524       -0.4902648293        1.1190615487
 H         -3.4226981387       -2.0608223656        3.1581144917
 H         -4.8183338392       -2.9404811483        2.5425923238
 H         -4.7538866732        0.0161125256        3.2998290423
 H         -5.4450048512       -1.2829582529        4.2667181157
 H         -7.0898493283       -1.7473385684        2.4164943170
 H         -6.4619841446       -0.3498461368        1.5403010506
 H         -7.2499435763       -0.1307355132        3.0993628035
 H         -0.6719200883       -3.4869489728       -0.4647050438
 H          2.6377714410       -2.5602695388       -0.0687808426
 H          2.3325310834        2.6040267531        0.1328910414
 H         -1.0574213859        3.2352436052        0.3572283135
