78
 energy: -123.394425510184 gnorm: 0.000080109500 xtb: 6.7.1 (edcfbbe)
C           -3.55696538564402       -3.36197900221291       -1.67068449192813
C           -3.62198513498745       -2.07208592578146       -0.91636536989847
C           -4.81270882339865       -1.37299927011835       -0.89131008832641
C           -4.92983446985897       -0.15306434258291       -0.23167357338493
N           -6.18292762619088        0.53678834035048       -0.21780973345803
C           -6.40221341708441        1.48399214168335       -1.20316045325435
C           -5.42096042255010        1.70469827806482       -2.17703486829837
C           -5.59061986348953        2.64204435178547       -3.17608126701703
C           -6.75098563012178        3.39495628056395       -3.24263675445527
C           -7.73654909321440        3.19037977465554       -2.29617891694358
C           -7.57067946726840        2.25046205490989       -1.28977262021490
S           -8.91082247505092        2.09484068987054       -0.14999200117139
C           -8.34361091834367        0.80105046111174        0.91036130456136
C           -9.21742635284894        0.41506334891884        1.91601646684134
C           -8.87007980999060       -0.57701958567234        2.81267808408431
C           -7.62953806941047       -1.18146636080620        2.69659638786009
C           -6.75687688464204       -0.80222309227311        1.69653873964647
C           -7.08907387792862        0.19512715731739        0.77192772441527
C           -3.82501549547530        0.38565223343396        0.41766427704909
C           -2.63166564313002       -0.29723702587354        0.40097188265039
C           -2.48964994459286       -1.53319925271942       -0.25660015572274
C           -1.21351447648895       -2.20914658641493       -0.23393220300641
C           -0.00702538392563       -1.52748931488957       -0.08753620093038
C            1.18916887838009       -2.24108918832738       -0.04284332837776
C            2.47550587687680       -1.59499431777934        0.07317216065052
C            2.63578663469981       -0.27887821076767       -0.39852026672067
C            3.84003794651334        0.38032836596963       -0.32222514469722
C            4.93788228700932       -0.26426566952836        0.23609882922372
N            6.20236632714994        0.39996767789971        0.31413412084596
C            7.10077356815407        0.18584414512984       -0.71760870987012
C            6.75033150413127       -0.66653478781617       -1.77146019194922
C            7.61496241098399       -0.91643329658729       -2.81809722230359
C            8.86539334340762       -0.32233794533980       -2.85321525077155
C            9.23059061891530        0.52902274638334       -1.82818329984149
C            8.36484878165781        0.78496335201889       -0.77515093934770
S            8.95456583497183        1.90980335062715        0.45239258037795
C            7.62016120201417        1.92445468254634        1.60926465542249
C            7.80361610960984        2.71119774250750        2.73673290149934
C            6.82415954689250        2.79557781772525        3.70756332834231
C            5.65220739472428        2.07660361977176        3.54214874576488
C            5.46499373869383        1.29150998130557        2.42229662587970
C            6.43957634231170        1.19552461024487        1.42182317623498
C            4.80257095837916       -1.56478910782679        0.71301685483885
C            3.60071005540908       -2.24131585907222        0.64261041219157
C            3.51697241978855       -3.62576618775967        1.20239499969032
N            1.13025606423931       -3.61051298886159       -0.12104152322342
C           -0.02715942114863       -4.19127839958001       -0.28045488291192
N           -1.17554591010670       -3.57626569129609       -0.35362520184772
H           -4.49397701492356       -3.54833350887063       -2.19115832214481
H           -3.35678062121144       -4.18787867881420       -0.99091025610006
H           -2.74707084650247       -3.33880640654462       -2.39779859009280
H           -5.68073919459237       -1.77337942982237       -1.39680492786714
H           -4.51243217902651        1.12528137260017       -2.14223935133695
H           -4.80843114717280        2.78145103719599       -3.90645975937431
H           -6.89003989865054        4.12966246168481       -4.01963939540831
H           -8.65405618125003        3.75861645745878       -2.32163573998976
H          -10.17450759399268        0.91002134232974        1.98232469144881
H           -9.55755643274018       -0.86952593854395        3.59028978827320
H           -7.33387396421913       -1.95542115033773        3.38809906875659
H           -5.79473154216392       -1.28288163208347        1.62307643401296
H           -3.91545962508607        1.32785916213013        0.93821052966855
H           -1.79318242847121        0.11548705852499        0.94013646709491
H            0.00095530322757       -0.45248924059834       -0.00954035985042
H            1.80270788632699        0.22095699741597       -0.86779167677484
H            3.94432322207123        1.38654776982455       -0.70112049797777
H            5.78028043211748       -1.13669725881649       -1.76243171523535
H            7.30520305671529       -1.58099333149845       -3.60993697312833
H            9.54674334553867       -0.51463804561590       -3.66663046329729
H           10.19561964946387        1.01286354448427       -1.82851018730446
H            8.72990582583549        3.25645095722713        2.83697858383474
H            6.97685593242238        3.41187741106699        4.57918468893018
H            4.87460890053768        2.12350989104602        4.28904577249324
H            4.54765700454607        0.73603308720054        2.31134802490656
H            5.66538718049618       -2.04786062331948        1.15063414975958
H            2.70840821985253       -3.69621640061904        1.92791915895487
H            4.45170047461798       -3.89946260315134        1.68715632839555
H            3.30351229094457       -4.34140320587224        0.41082002535599
H           -0.03529969313492       -5.27154949333876       -0.35853678450180
