  78
       -123.46119976
 C         -3.3021195029       -3.0732438624       -1.8655345234
 C         -3.5129880076       -1.9486575933       -0.9028003439
 C         -4.7094986279       -1.2483151841       -0.9103508396
 C         -4.9395274269       -0.1987369529       -0.0295826083
 N         -6.1756143795        0.5069978163       -0.0486638856
 C         -6.2034509277        1.7130180683       -0.7456169097
 C         -5.0956175349        2.1013730941       -1.5018541466
 C         -5.0757491461        3.2977996304       -2.1961565719
 C         -6.1727104744        4.1376334080       -2.1724721423
 C         -7.2887260907        3.7611406559       -1.4465621823
 C         -7.3056564464        2.5715532444       -0.7374865634
 S         -8.7753671900        2.2265501266        0.1865472972
 C         -8.5367942411        0.5207383017        0.5998148163
 C         -9.6410739884       -0.1442908814        1.1061202060
 C         -9.5410773990       -1.4529528706        1.5435242116
 C         -8.3148488740       -2.0863536903        1.4793207493
 C         -7.2137502541       -1.4307943202        0.9578979589
 C         -7.2991979003       -0.1193241985        0.4868115320
 C         -3.9520581751        0.1769113967        0.8702527332
 C         -2.7476768367       -0.4986471801        0.8737540162
 C         -2.5166747752       -1.5606294763        0.0032122976
 C         -1.2163458882       -2.2478435724        0.0631526877
 C         -0.0274346995       -1.5261732139        0.1537979593
 C          1.1641631908       -2.2483008699        0.2097930672
 C          2.4692764975       -1.5692104879        0.2275694432
 C          2.6422167853       -0.4520484340       -0.5869222924
 C          3.8523183689        0.2102738877       -0.6444844313
 C          4.9104875432       -0.2419910878        0.1301432258
 N          6.1650727828        0.4306410110        0.0638633421
 C          7.0730182289       -0.0086885575       -0.8960896644
 C          6.7817174943       -1.1415103067       -1.6583540188
 C          7.6552207623       -1.6072081730       -2.6250330090
 C          8.8553875681       -0.9613055766       -2.8520651153
 C          9.1647944674        0.1604469382       -2.1032735931
 C          8.2863154449        0.6379741126       -1.1450740846
 S          8.7720487577        2.1179434573       -0.3020543882
 C          7.5911961862        2.1790183102        1.0166205488
 C          7.8391761008        3.1016831057        2.0190263213
 C          6.9450381871        3.2739674452        3.0610028712
 C          5.7942680708        2.5097777635        3.0880238577
 C          5.5504275602        1.5764991546        2.0960776807
 C          6.4436084116        1.3815794968        1.0409230593
 C          4.7429287481       -1.3475364717        0.9534869349
 C          3.5356769683       -2.0279808568        1.0139464089
 C          3.4004064224       -3.2138473230        1.9140022961
 N          1.1477785621       -3.5824412234        0.2159401364
 C         -0.0282366525       -4.1679867360        0.1313399670
 N         -1.2034314562       -3.5813934110        0.0390567529
 H         -4.1143964500       -3.1183778890       -2.5864426043
 H         -3.2518897794       -4.0165875362       -1.3258164539
 H         -2.3609619136       -2.9545449443       -2.3994677687
 H         -5.4859099361       -1.5208988113       -1.6110765454
 H         -4.2323672935        1.4557308652       -1.5444101920
 H         -4.1948333035        3.5647189708       -2.7599788901
 H         -6.1667149383        5.0719722770       -2.7108631179
 H         -8.1628872181        4.3932261354       -1.4099770900
 H        -10.5781506955        0.3882240658        1.1665024228
 H        -10.4067791736       -1.9593144125        1.9398101011
 H         -8.2033029232       -3.0993298842        1.8348851558
 H         -6.2665729077       -1.9454036498        0.9271625073
 H         -4.1308733582        0.9935721549        1.5528662358
 H         -1.9825127438       -0.2172222222        1.5824887214
 H         -0.0314790018       -0.4480463513        0.1716059020
 H          1.8249552723       -0.1147198373       -1.2072962571
 H          3.9848151118        1.0676007185       -1.2866595893
 H          5.8524127524       -1.6644194506       -1.4953841405
 H          7.3883949405       -2.4826701157       -3.1972035418
 H          9.5435982671       -1.3183046735       -3.6019145123
 H         10.0913405063        0.6913425722       -2.2609908011
 H          8.7400269539        3.6935331452        1.9610537637
 H          7.1457508231        4.0008508179        3.8320104111
 H          5.0749942601        2.6324214394        3.8836296716
 H          4.6447440664        0.9918119075        2.1367405634
 H          5.5780209303       -1.6828866573        1.5521071021
 H          2.4816850928       -3.1593974092        2.4941794549
 H          4.2468490851       -3.2771790937        2.5931204325
 H          3.3535635893       -4.1239580672        1.3196351442
 H         -0.0285072559       -5.2512845238        0.1323189433
