78
 energy: -123.461423411094 gnorm: 0.000058329965 xtb: 6.7.1 (edcfbbe)
C           -3.39731106226935       -3.07709815672321       -1.95223524413745
C           -3.54688276880662       -1.94033487970088       -0.99292658985276
C           -4.73851087859636       -1.23226874165187       -0.94806493932169
C           -4.91710820151949       -0.16989672311268       -0.07163966697508
N           -6.15110274544756        0.54157863140911       -0.03841875557361
C           -6.25755025318690        1.66811849680359       -0.84943342215305
C           -5.21795303961890        1.99372237129555       -1.72277151590806
C           -5.28125407760561        3.10809749850559       -2.54036599645338
C           -6.39457185541320        3.92606309843154       -2.52147987228240
C           -7.43960893324896        3.61561912142325       -1.66926970599006
C           -7.37290692393420        2.50978606091019       -0.83830760206418
S           -8.74946075689541        2.25719837040909        0.24636970401312
C           -8.43633247704474        0.61757928417470        0.83926929112222
C           -9.46958144242700        0.00986700094311        1.53266076994050
C           -9.30319733730207       -1.24154483215957        2.09915971230253
C           -8.08417643199093       -1.87834017341043        1.96727968749705
C           -7.05481125097228       -1.28107187179070        1.26158279731742
C           -7.20705768970438       -0.02548789508327        0.67050923535065
C           -3.88633496556268        0.20797017866515        0.77640569018922
C           -2.68935403353817       -0.47896153303886        0.73168133503431
C           -2.50497547637395       -1.55020093962134       -0.13962980087930
C           -1.20797781644874       -2.24517584805324       -0.12944767591546
C           -0.01269699797321       -1.53490138665288       -0.02631633907718
C            1.17433467570855       -2.26571308736868        0.00282032755297
C            2.48077464783413       -1.59175955247698        0.06790861257422
C            2.66858356942989       -0.43808107896735       -0.69022909065216
C            3.87558813413289        0.23265085406545       -0.68459731551823
C            4.91431285992882       -0.24807127162274        0.09891964762358
N            6.16292575388390        0.43920156455673        0.11071550080925
C            7.14118954715564        0.00472823211151       -0.77969192234179
C            6.90317212019513       -1.11403221963419       -1.58023330183869
C            7.84964890916660       -1.57625439061805       -2.47736252445896
C            9.07027383792290       -0.93979029409592       -2.59547889695162
C            9.32460878228290        0.17224556005682       -1.81222962633785
C            8.37390158553486        0.64665913137299       -0.92409683966915
S            8.79619454434220        2.11982125366814       -0.03587619394141
C            7.51322212277631        2.17917157107920        1.18353588939743
C            7.68252670281992        3.09533359708206        2.20804629352731
C            6.71057568678927        3.26088677650398        3.17903454395421
C            5.56304437214683        2.49424230971702        3.11419522866204
C            5.39730059592875        1.56704396470587        2.10064496242139
C            6.36717520273669        1.38246545049599        1.11345293153968
C            4.73328943203880       -1.39373715531282        0.86237517346177
C            3.53018941527570       -2.08383868666091        0.85712928655621
C            3.37956775582026       -3.31264696912942        1.69494809897685
N            1.15108048197943       -3.59873222618105       -0.04761151914460
C           -0.02880453910383       -4.17310985273809       -0.15335890293899
N           -1.20149695352352       -3.57700743438538       -0.20641570626270
H           -4.23057393864663       -3.10138998310248       -2.65001416331361
H           -3.36283018913093       -4.01778614663056       -1.40663860683947
H           -2.46769346956714       -2.99384819523355       -2.51173407497076
H           -5.55210541463591       -1.50936687713644       -1.60334455428656
H           -4.34195804717742        1.36505188364345       -1.75912049182081
H           -4.45188739425787        3.32834639762192       -3.19531948261045
H           -6.45418643612525        4.79536885340663       -3.15703804370586
H           -8.32147176653971        4.23674302446236       -1.62801867495486
H          -10.40355523174536        0.54171425098648        1.63301474427780
H          -10.11332128798542       -1.70215213973522        2.64203180309635
H           -7.92278867802195       -2.84839105530112        2.41234194385516
H           -6.11119947363851       -1.79637416089856        1.17556440637485
H           -4.02730758258114        1.03196729440460        1.45894512715260
H           -1.89221348431932       -0.19761227145563        1.40404907325332
H           -0.00697569830434       -0.45811700834077        0.02725004471753
H            1.86553500417288       -0.07614720265194       -1.31530448761813
H            4.01921444236993        1.12027087810102       -1.28141961238652
H            5.95784043137176       -1.62799433135298       -1.50408233967824
H            7.62296089917247       -2.44127438871601       -3.08191593181865
H            9.81576983281120       -1.29529610323956       -3.28905195815397
H           10.26435535333676        0.69794621128766       -1.88813722600330
H            8.58542400077212        3.68670016860960        2.22430731979025
H            6.85074627061775        3.98295512710660        3.96779603750283
H            4.78588360797714        2.60943623427288        3.85452019455833
H            4.49385229081434        0.97821998832477        2.07052417965588
H            5.55407452312892       -1.75108623365483        1.46792122543270
H            2.45608158388359       -3.28095149963017        2.26949902699356
H            4.21937255284022       -3.41573483079361        2.37755891600524
H            3.33169094254093       -4.19136501574648        1.05515157751550
H           -0.03536387889939       -5.25526062138164       -0.20323452387701
