  78
       -123.39012754
 C         -3.6032677155       -3.4309416837       -1.5336010343
 C         -3.6448753162       -2.1318948922       -0.7937789241
 C         -4.8351088906       -1.4344233987       -0.7385226416
 C         -4.9332978721       -0.2063870913       -0.0894366763
 N         -6.1834992302        0.4882172004       -0.0516745203
 C         -6.4134586736        1.4408445491       -1.0286298918
 C         -5.4516049121        1.6531192333       -2.0239961376
 C         -5.6314477668        2.5969761763       -3.0146747556
 C         -6.7831751386        3.3656049148       -3.0518918925
 C         -7.7505741833        3.1684996621       -2.0856472431
 C         -7.5747801375        2.2214265477       -1.0873550782
 S         -8.8928854447        2.0743924255        0.0776861266
 C         -8.3169846490        0.7726755726        1.1221718165
 C         -9.1729127265        0.3939374402        2.1460820873
 C         -8.8165813503       -0.6034067583        3.0329774269
 C         -7.5847767123       -1.2204440039        2.8892771326
 C         -6.7297392631       -0.8482109905        1.8719466431
 C         -7.0716590914        0.1540437488        0.9557698561
 C         -3.8097922834        0.3388168366        0.5226950487
 C         -2.6168352830       -0.3420946452        0.4750338516
 C         -2.4913890346       -1.5831153489       -0.1784248709
 C         -1.2108794156       -2.2513975595       -0.1997007496
 C         -0.0074469686       -1.5559047642       -0.1014761616
 C          1.1987261702       -2.2562264862       -0.1109953716
 C          2.4790213709       -1.5929993613       -0.0409752177
 C          2.5969322214       -0.2586206147       -0.4769987451
 C          3.7902940617        0.4215984285       -0.4307982666
 C          4.9242214867       -0.2194267206        0.0560556392
 N          6.1766921024        0.4701523958        0.1137821150
 C          7.0130324355        0.3713992709       -0.9842268593
 C          6.6159402804       -0.3967425414       -2.0857456633
 C          7.4151918532       -0.5253047143       -3.2033456670
 C          8.6450127967        0.1095205381       -3.2645541481
 C          9.0578711118        0.8740332081       -2.1906743850
 C          8.2580015612        1.0075128205       -1.0650660709
 S          8.9060290544        2.0225029124        0.2261515683
 C          7.6517269577        1.8910148220        1.4616598995
 C          7.8974829806        2.5639494134        2.6495958143
 C          6.9789947622        2.5362355875        3.6811105266
 C          5.8027181732        1.8242849561        3.5131650492
 C          5.5541239830        1.1512450946        2.3342539233
 C          6.4699052683        1.1631264317        1.2749165618
 C          4.8347464294       -1.5402247807        0.4881171736
 C          3.6436786042       -2.2369985768        0.4502500737
 C          3.6151385659       -3.6413043428        0.9638086520
 N          1.1534843885       -3.6235819200       -0.1933513077
 C         -0.0061812873       -4.2131496815       -0.3003385965
 N         -1.1672195202       -3.6157902367       -0.3203052385
 H         -4.5579124701       -3.6267884365       -2.0172608524
 H         -3.3747137593       -4.2466642314       -0.8507649774
 H         -2.8201080384       -3.4154550317       -2.2893106334
 H         -5.7180326109       -1.8410356807       -1.2124527483
 H         -4.5505498013        1.0613921604       -2.0124155333
 H         -4.8639100924        2.7298636555       -3.7615951044
 H         -6.9292335454        4.1066039538       -3.8216393368
 H         -8.6612462364        3.7482212437       -2.0883293456
 H        -10.1229205688        0.8990730906        2.2338955924
 H         -9.4900026188       -0.8902387810        3.8248383005
 H         -7.2825029908       -1.9983921770        3.5733787697
 H         -5.7738241893       -1.3373881457        1.7771494330
 H         -3.8860498460        1.2858535151        1.0368324751
 H         -1.7634222155        0.0767357703        0.9852368270
 H         -0.0096542495       -0.4813123124       -0.0205292209
 H          1.7361981373        0.2417080081       -0.8924375003
 H          3.8586344738        1.4421314216       -0.7785006384
 H          5.6619242339       -0.8978429231       -2.0545845074
 H          7.0721327932       -1.1275857956       -4.0304547474
 H          9.2748410412        0.0121929243       -4.1344719970
 H         10.0098490632        1.3828332396       -2.2072229358
 H          8.8229654822        3.1109502862        2.7475402092
 H          7.1796279254        3.0639724449        4.5998142330
 H          5.0692878301        1.7904465065        4.3040982082
 H          4.6339065492        0.6011556236        2.2212744758
 H          5.7258730182       -2.0213433525        0.8674383223
 H          2.8555707066       -3.7500736787        1.7359362322
 H          4.5827734785       -3.9163999912        1.3783982051
 H          3.3602521072       -4.3318714310        0.1625856324
 H         -0.0055017584       -5.2937491214       -0.3797889989
