107
 energy: -152.401783190831 gnorm: 0.000051210693 xtb: 6.7.1 (edcfbbe)
C            2.40750381469983       -4.95461789559068       -1.55382088030244
C            1.12760030850675       -4.99987378780846       -2.40593051271329
C           -0.03408411944893       -5.54284889306249       -1.55607976711421
C            1.36353120979406       -5.97144534202740       -3.56544886579385
C            0.78888128684345       -3.59994708408659       -2.86639620436581
C            0.67721574987661       -3.23808794030326       -4.23428627804442
C            0.36931742326360       -1.97537152359654       -4.63858589540589
C            0.14508127974072       -0.95569801942347       -3.65879456735234
C            0.25303046397914       -1.32916922331345       -2.26035900410302
C            0.56774659101545       -2.59336303295132       -1.89038845809118
C            0.00446815995360       -0.11570909131988       -1.38391571733754
C            1.26010796990459        0.10839928505789       -0.57123772948415
C            2.29124556973912        0.90013369105936       -1.06253384424063
C            3.47761607715699        1.02880558635985       -0.36752023436933
C            3.65633212860402        0.35931915425982        0.83890440677478
N            4.86024449265031        0.48041290739392        1.54667693070805
C            5.62472627500421       -0.56659338008432        2.01923456748765
C            5.43585983200444       -1.93376036700668        1.87412482310450
C            6.37794587734119       -2.77715861615366        2.43077408253911
C            7.48844672489773       -2.28038399141744        3.10981264672838
C            7.69430181488984       -0.92091861909574        3.23636228997557
C            6.76155039211776       -0.05274794375492        2.68506567969372
C            6.66657642413441        1.37831880038873        2.60760969304231
C            7.45856311058903        2.41609218072650        3.08019311272168
C            7.05706172776457        3.71572197856570        2.84286875783866
C            5.87560945716875        3.98683960031980        2.15613215423796
C            5.07068890599715        2.97162179890217        1.67629214260900
C            5.48020141999731        1.66348059261999        1.89257838722089
C            2.62850418361452       -0.43706059519910        1.33657479093758
C            1.44779567214277       -0.56251627491924        0.63325006230450
C           -1.24644110377187       -0.21525650159175       -0.53926608300879
C           -1.42543678766588        0.62621596955060        0.55442961446319
C           -2.60519395620265        0.61494251578290        1.27021020370866
C           -3.64087517293338       -0.23691025050682        0.89589171626895
N           -4.84586947002330       -0.23812870999559        1.61207414738100
C           -5.48100235212514       -1.34899122532281        2.12786720997483
C           -5.08749115880178       -2.67960525716285        2.10984258146140
C           -5.90631495655813       -3.60250427898613        2.73160842343014
C           -7.08574440931736       -3.21810218586580        3.36574824453615
C           -7.47124781084731       -1.89282900252831        3.40613812534786
C           -6.66525951290789       -0.94642919947005        2.78788983545375
C           -6.74306489369513        0.48118741947065        2.65057586301775
C           -7.66662943809356        1.43273419813032        3.06201281481305
C           -7.44471119536356        2.75540200609944        2.73359161964648
C           -6.32724995060619        3.13210105076618        1.99165354631421
C           -5.39388384356112        2.20419054471279        1.57154891046009
C           -5.59889858686753        0.87651307648355        1.91962012437850
C           -3.46956293380180       -1.07973079624013       -0.19768326771502
C           -2.28405348428836       -1.06416080686033       -0.90574322085987
C           -0.25522476062482        0.95745420450037       -2.42481813799947
C           -0.56490054224896        2.26271263162725       -2.23879401634300
C           -0.80350600299066        3.11569618222993       -3.34768922620956
C           -1.13822935185740        4.56781480124014       -3.09114832953554
C            0.03517676692822        5.22911140015558       -2.34794346624618
C           -1.39459597948236        5.35972145436740       -4.37612956805457
C           -2.40461398764261        4.64705263508170       -2.22144521067943
C           -0.71411159657486        2.55725482398642       -4.64954675376807
C           -0.41129259189048        1.24859928928013       -4.86961966741974
C           -0.16968016844520        0.38307960229916       -3.75494079508717
H            2.67227319531932       -5.95734766050463       -1.22476008965973
H            3.23271491685960       -4.55229129268044       -2.13779795115065
H            2.27815280038464       -4.33036818662427       -0.67407492436854
H           -0.21490609172721       -4.91763842499847       -0.68604111323610
H            0.19313773041169       -6.54981366698518       -1.21234296613872
H           -0.94698306459036       -5.57691164483725       -2.14725345580444
H            0.47313639204091       -6.07031073888245       -4.18211900347224
H            1.60746830329233       -6.95541369013382       -3.16965595868972
H            2.19416518700482       -5.64453344758378       -4.18675020414070
H            0.84453977271252       -3.98999492746606       -4.98869608934418
H            0.29788096041264       -1.72767406787771       -5.68663335478090
H            0.64548864220207       -2.83926635960940       -0.84190384452284
H            2.16472374991770        1.41458427861996       -2.00379621026572
H            4.27952857635078        1.63254847814029       -0.76552993786407
H            4.58818075195532       -2.32679491687078        1.33319499861235
H            6.25275329623233       -3.84560070932234        2.33383958484566
H            8.20089056971971       -2.97265273070981        3.53327553486273
H            8.56346560375826       -0.53625101129765        3.74832678726349
H            8.36657514918351        2.20625803534453        3.62517818330785
H            7.65988806419101        4.53735695445898        3.20012028508549
H            5.58058949033767        5.01381364044339        1.99814754566675
H            4.14873903275350        3.19063479304908        1.15894885679076
H            2.75749858004855       -0.94319547145658        2.28188567783285
H            0.65322813593421       -1.17593698816154        1.03313374137434
H           -0.62540754846755        1.28583923838854        0.85834362034203
H           -2.72800477191937        1.25588816211216        2.13075421809733
H           -4.16724234265034       -2.98414381634224        1.63444272921171
H           -5.62408271459881       -4.64510062268557        2.72875960563625
H           -7.69981537580397       -3.97024143174260        3.83830547897692
H           -8.37775904362302       -1.59341102493031        3.91022616404349
H           -8.54123230787018        1.13908891987464        3.62269098773370
H           -8.14990748641975        3.51133973353541        3.04566252054362
H           -6.18960298276151        4.17234593337086        1.73556176964879
H           -4.54076316987263        2.50200713495076        0.98067884173680
H           -4.27692281667798       -1.72937706202299       -0.50117100028045
H           -2.16380776937884       -1.71282797609209       -1.76097328517436
H           -0.62574762387497        2.65941392524663       -1.23641888775245
H            0.93893865969949        5.17586571825806       -2.95160708929744
H           -0.18874897293140        6.27565437925082       -2.15206744037435
H            0.23037646301219        4.73816499630081       -1.39850537844326
H           -0.51419855446420        5.36746515902076       -5.01463701778904
H           -2.23410572865831        4.94560159275268       -4.92981531080270
H           -1.63460110792152        6.39092281383338       -4.12438441376389
H           -3.23788925712123        4.16386195447838       -2.72747144089578
H           -2.26001251859793        4.15754938216003       -1.26235073822384
H           -2.66661694664104        5.68698241213006       -2.03771706788511
H           -0.89506855092393        3.19076436169625       -5.50302763133720
H           -0.35708778337061        0.85001074424624       -5.87114424028694
