107
 energy: -152.401780564009 gnorm: 0.000045806281 xtb: 6.7.1 (edcfbbe)
C            2.24840295211748       -4.98293464708588       -1.69396180132571
C            0.96889533863089       -4.96128730345870       -2.54749652533519
C           -0.21327103029968       -5.48048500671782       -1.71105291556235
C            1.16970917033054       -5.91391335473680       -3.72912494015518
C            0.68308402104782       -3.53945186081011       -2.97544619114440
C            0.59551245880122       -3.14016088651139       -4.33463885162208
C            0.33128488080087       -1.85861330769407       -4.70951731819622
C            0.12854558426226       -0.85747073519121       -3.70611928660401
C            0.21528425326070       -1.26836453370845       -2.31678439126164
C            0.48811287663998       -2.55038233384138       -1.97616935308176
C           -0.00652706689613       -0.07066997000849       -1.41197504295514
C            1.25099896006775        0.10426902744840       -0.58940379329790
C            2.30214171826329        0.88382383151887       -1.05731181978653
C            3.48578347958353        0.97365891379569       -0.35161288205488
C            3.64155490573604        0.27714574032964        0.84262577311525
N            4.84065514122995        0.36282748122741        1.56347356930611
C            5.57936884152945       -0.70624252912533        2.02759058521653
C            5.36671074087256       -2.06699247129697        1.85723061023146
C            6.28561052948964       -2.93726283127517        2.41126670638707
C            7.39657420858197       -2.47304221831427        3.11221611173043
C            7.62654654881150       -1.12001515003843        3.26376209839971
C            6.71742466675123       -0.22527689507071        2.71549664015927
C            6.65060042252507        1.20842387545114        2.66072718414474
C            7.45663107614595        2.22277931031492        3.15967250537964
C            7.08302177688311        3.53365670140529        2.93929437864846
C            5.91512297652226        3.83873311186806        2.24370473019827
C            5.09665592934094        2.84726245413170        1.73781143152347
C            5.47856018334908        1.52803506121127        1.93668885101375
C            2.59470792130160       -0.50965899348952        1.31530217426144
C            1.41720587931988       -0.59690766448190        0.60090212476751
C           -1.26070919409752       -0.16487974760363       -0.57132050912120
C           -1.42290596592211        0.64982196223540        0.54497144180079
C           -2.59780645567300        0.63316643650764        1.26871040431999
C           -3.64588026401267       -0.19657500273474        0.87958557857692
N           -4.84248469633212       -0.21077921330855        1.60951723657453
C           -5.47806417183119       -1.33333335080143        2.09914741571892
C           -5.09547443184921       -2.66555268363148        2.03152733999065
C           -5.91125545769982       -3.60216497677611        2.63657144071970
C           -7.07718017964201       -3.22999461110332        3.30217466955109
C           -7.45147297426441       -1.90393637715234        3.39184399720105
C           -6.64812117849860       -0.94385232771327        2.79149855592155
C           -6.71620844851903        0.48811597884281        2.70309659041330
C           -7.62452671521596        1.43254520129479        3.16208392320197
C           -7.39635025289712        2.76382223035631        2.87540108046843
C           -6.28793525236872        3.15648460585278        2.12819362223616
C           -5.36985980391930        2.23584919106069        1.66101188963005
C           -5.58076050998047        0.89877139118870        1.96699584512810
C           -3.49394935211543       -1.00744660536389       -0.24066191786886
C           -2.31300510401460       -0.98708227425844       -0.95625322333980
C           -0.23205787619355        1.03413702637354       -2.42734506842205
C           -0.50538151849223        2.34276882510076       -2.21105021914265
C           -0.70496780670764        3.23065071323911       -3.30036302138776
C           -0.99287120826135        4.68648487449303       -3.01043068928766
C            0.19013861952038        5.28629537678920       -2.23107873041688
C           -1.19900470024387        5.52055907943430       -4.27766095180895
C           -2.27027057847398        4.78740001811199       -2.15940882019476
C           -0.62049764615368        2.70242470096904       -4.61501053272250
C           -0.35573655739971        1.39096858134929       -4.86544134026237
C           -0.14935839816996        0.49126819372276       -3.77085331844686
H            2.47301361733894       -6.00138067155877       -1.38386674560824
H            3.08954562399306       -4.60240612242397       -2.26975191161899
H            2.14245081521139       -4.37060144385618       -0.80275596232574
H           -0.36826176634764       -4.87346351956069       -0.82334765982188
H           -0.02665330893623       -6.50504473503521       -1.39609239078983
H           -1.12717957696549       -5.46115924545809       -2.30133919456565
H            0.27764213103932       -5.96307673110706       -4.34935954097073
H            1.37387116248886       -6.91567705420224       -3.35611908275927
H            2.01414797986505       -5.60565399936571       -4.34126610858133
H            0.74583189898156       -3.87796348794478       -5.10635416811502
H            0.27734998967241       -1.58266416701769       -5.75152674262930
H            0.55065366618945       -2.82422578701621       -0.93360081478607
H            2.19335324283398        1.42049692916115       -1.98829218373523
H            4.30268754899840        1.56879821122483       -0.73165281742139
H            4.51875016595735       -2.43486964424557        1.29932138709373
H            6.14151481012024       -4.00137932019877        2.29493054215914
H            8.09026715968063       -3.18566577747389        3.53303035899604
H            8.49625041790322       -0.76045430780061        3.79277059621864
H            8.35388994271107        1.98647437174515        3.71158670249202
H            7.69728009112028        4.33751944852384        3.31692593339416
H            5.64164371666168        4.87366155391018        2.09944918027207
H            4.18514315029216        3.09270562312426        1.21389735319919
H            2.70608526692394       -1.03781104288533        2.25074337171922
H            0.60809607611245       -1.20313654700095        0.98209568537837
H           -0.61268309798397        1.29063049131661        0.86180037964435
H           -2.70621976906661        1.25093004434512        2.14792813441737
H           -4.18545992282832       -2.96135715525813        1.53155576942184
H           -5.63720571143435       -4.64613695323711        2.59538537124927
H           -7.68934365269018       -3.99258491877105        3.76023944800519
H           -8.34718834436530       -1.61439049259792        3.92040635291161
H           -8.49229079051018        1.12705580016239        3.72704393690441
H           -8.08950560796929        3.51443754139134        3.22502505397285
H           -6.14522877241119        4.20376244293100        1.90574507721158
H           -4.52386375798886        2.54669125465676        1.06661091140281
H           -4.31179330360970       -1.63750987750570       -0.55707324974458
H           -2.20731824079077       -1.61271819024446       -1.83031370630585
H           -0.56509862022030        2.71582288251919       -1.19957122170738
H            1.10259275786431        5.21229461296033       -2.81928706818016
H            0.00180428436711        6.33598506464079       -2.01558748131230
H            0.34886552247413        4.76781457435195       -1.28953933067909
H           -0.30865555122366        5.51172663317307       -4.90223179340049
H           -2.04426656332806        5.15300676086215       -4.85494060099013
H           -1.40462394371087        6.55312795602184       -4.00221021071473
H           -3.11193694171168        4.35134687565500       -2.69356012825186
H           -2.16054951208470        4.26393662870450       -1.21369488543173
H           -2.49660181841383        5.83047141093512       -1.94817352154466
H           -0.77376989044154        3.36232591699759       -5.45377917827450
H           -0.30423929656213        1.01599570327887       -5.87617689194668
