  107
       -152.50531533
 C          2.1840338397       -5.0187475591       -1.6808874308
 C          0.9244880442       -4.9821575808       -2.5582434986
 C         -0.2842716406       -5.4852552652       -1.7558204246
 C          1.1405395287       -5.9307200061       -3.7401573021
 C          0.6630698182       -3.5480965385       -2.9913468135
 C          0.6006494534       -3.1597199410       -4.3258015032
 C          0.3531909950       -1.8469003461       -4.6972182120
 C          0.1620625824       -0.8940508475       -3.7139036747
 C          0.2215047278       -1.2723805027       -2.3661475643
 C          0.4708860923       -2.5753143758       -2.0074872475
 C          0.0046206612       -0.0737510680       -1.4605640758
 C          1.2575956632        0.1013828038       -0.6300205287
 C          2.3004388312        0.9084594549       -1.0663005820
 C          3.4729875622        1.0025940129       -0.3415413886
 C          3.6247332074        0.2854135608        0.8403678083
 N          4.8125399666        0.3770733678        1.5790397272
 C          5.5678794549       -0.6876532538        2.0269427736
 C          5.3833172982       -2.0482225257        1.8261922962
 C          6.3144501038       -2.9121482294        2.3696032060
 C          7.4104188814       -2.4417498510        3.0898761692
 C          7.6120449027       -1.0884029384        3.2726286770
 C          6.6898418708       -0.1997014407        2.7357573141
 C          6.5949909255        1.2329427779        2.7127360400
 C          7.3757531272        2.2515038840        3.2430955329
 C          6.9776284987        3.5590217248        3.0502409491
 C          5.8103086078        3.8567507368        2.3504210634
 C          5.0173138422        2.8613444712        1.8129833366
 C          5.4238689716        1.5459329078        1.9847868373
 C          2.5845000976       -0.5264013409        1.2824201908
 C          1.4186542777       -0.6189573421        0.5490225857
 C         -1.2481583015       -0.1659602336       -0.6174867918
 C         -1.3996442061        0.6496179926        0.4990513957
 C         -2.5664600727        0.6311806747        1.2364100794
 C         -3.6173580347       -0.1996939488        0.8598216471
 N         -4.8048978371       -0.2159110907        1.6041492968
 C         -5.4278695809       -1.3393784599        2.1085725589
 C         -5.0444708856       -2.6708472817        2.0346362655
 C         -5.8451168878       -3.6080990985        2.6584767148
 C         -6.9972652680       -3.2372856027        3.3484630518
 C         -7.3721890708       -1.9121672375        3.4436890135
 C         -6.5836925896       -0.9511652097        2.8247182508
 C         -6.6563125978        0.4802909977        2.7366286074
 C         -7.5564876977        1.4234962564        3.2146670202
 C         -7.3366525951        2.7548398624        2.9235762598
 C         -6.2448545186        3.1491878280        2.1530507548
 C         -5.3353688803        2.2300597036        1.6666727313
 C         -5.5373315639        0.8927640256        1.9770916278
 C         -3.4758012885       -1.0109443091       -0.2609964699
 C         -2.3018653351       -0.9911627923       -0.9892594934
 C         -0.2087481147        1.0312450957       -2.4789143246
 C         -0.4890784633        2.3566805345       -2.2485255535
 C         -0.6802110948        3.2288904215       -3.3227012190
 C         -0.9960398767        4.6875144604       -3.0309937207
 C          0.1602889841        5.2981620229       -2.2261216602
 C         -1.1845573344        5.5209336583       -4.3011605256
 C         -2.2946810763        4.7601462300       -2.2147061460
 C         -0.5770467057        2.7200986560       -4.6134654974
 C         -0.2995414425        1.3832710444       -4.8555123471
 C         -0.1181582986        0.5290377429       -3.7837253155
 H          2.3998770976       -6.0413342851       -1.3784534997
 H          3.0384384567       -4.6342413135       -2.2340672112
 H          2.0625057993       -4.4179754534       -0.7839082418
 H         -0.4524760000       -4.8792657192       -0.8697648442
 H         -0.1228296923       -6.5138276512       -1.4399646095
 H         -1.1827602045       -5.4496267855       -2.3685382285
 H          0.2608800984       -5.9687229240       -4.3786046254
 H          1.3274817051       -6.9360310090       -3.3677175706
 H          2.0001875094       -5.6272175953       -4.3331387957
 H          0.7466705615       -3.8860823014       -5.1084836050
 H          0.3113888336       -1.5780038318       -5.7424144467
 H          0.5110627417       -2.8384612922       -0.9616273991
 H          2.1989911837        1.4640375294       -1.9866705997
 H          4.2839046267        1.6200823514       -0.6978277826
 H          4.5471100418       -2.4209325785        1.2537469431
 H          6.1921213193       -3.9761905417        2.2294468832
 H          8.1146839045       -3.1497579927        3.5008639807
 H          8.4700021141       -0.7231403859        3.8167790853
 H          8.2722742286        2.0201194160        3.7983130626
 H          7.5713970786        4.3659878567        3.4530884165
 H          5.5170013177        4.8890510358        2.2280011701
 H          4.1061517903        3.1008532205        1.2855434322
 H          2.6912516304       -1.0726739522        2.2078590635
 H          0.6146294547       -1.2445658442        0.9090033145
 H         -0.5881905299        1.2931660769        0.8069964492
 H         -2.6660863424        1.2513644959        2.1148532769
 H         -4.1447504042       -2.9660258040        1.5158703382
 H         -5.5698704371       -4.6516283441        2.6128932965
 H         -7.5977033440       -4.0004836106        3.8208843715
 H         -8.2570351756       -1.6233171238        3.9906541526
 H         -8.4114588436        1.1163759492        3.7979951895
 H         -8.0233499768        3.5044832129        3.2878136069
 H         -6.1086153744        4.1967187694        1.9274750411
 H         -4.5024958925        2.5426707016        1.0547542327
 H         -4.2953277523       -1.6432438136       -0.5682294022
 H         -2.2072805627       -1.6197761231       -1.8622028427
 H         -0.5596503904        2.7139905675       -1.2325620476
 H          1.0885489409        5.2285514850       -2.7897170966
 H         -0.0401149214        6.3474724342       -2.0197313895
 H          0.2986099392        4.7861151069       -1.2779457572
 H         -0.2804188526        5.5244724564       -4.9054402130
 H         -2.0119023772        5.1441775526       -4.8977373422
 H         -1.4094372239        6.5501696341       -4.0284754671
 H         -3.1138144479        4.3096244368       -2.7715060533
 H         -2.1996059622        4.2352677065       -1.2681177768
 H         -2.5481883178        5.7974079827       -2.0057262610
 H         -0.7175215904        3.3676529950       -5.4634596974
 H         -0.2308199900        1.0190124358       -5.8699617260
