  83
  -137.176253748700       0.629782360278242      !
 F         -1.2772187596       -6.3182833055        0.7072205520
 C         -0.7152604050       -5.1416896460        1.0308755360
 F         -1.0544272918       -4.8957571763        2.3039985696
 F          0.6169125332       -5.3570383562        1.0322821135
 C         -1.1000291592       -4.0358144752        0.0906877756
 C         -1.2391193111       -4.3142186632       -1.2633711436
 C         -1.5579661245       -3.2886622743       -2.1378416842
 C         -1.7262368769       -1.9994391002       -1.6691388360
 C         -1.5817493947       -1.7259149873       -0.3101559506
 N         -1.7180468513       -0.4142228933        0.1606333859
 C         -0.7182836642        0.3463694564        0.7411208394
 C          0.6448134360       -0.0820573611        0.9912980955
 C          1.3110983755       -1.0435997546        0.2383549304
 C          2.6287248416       -1.3661612925        0.5011716375
 C          3.3275251685       -0.7080136289        1.5079290391
 O          4.6287663727       -0.9253128414        1.8395479777
 C          5.4639578579       -1.6518908617        0.9604704705
 C          5.6766020677       -0.9292521326       -0.3729076248
 C          6.2217834471        0.4855578246       -0.1667585641
 C          5.7672648350        1.4380458976       -1.2806212482
 N          4.3541874356        1.6983670890       -1.2121547855
 C          3.3635885496        1.1066317326       -1.9586346451
 C          3.4533355900        0.1813739825       -2.9910929110
 C          2.2809923000       -0.2544138818       -3.5777591374
 C          1.0386744677        0.2202988380       -3.1633169539
 C          0.9390573273        1.1476596699       -2.1456300148
 C          2.1022990357        1.5912711436       -1.5324087156
 C          2.3602756277        2.5085958941       -0.4615697722
 C          1.5407485724        3.2778323947        0.3534680890
 C          2.1308543142        4.0636285599        1.3222669949
 C          3.5145722759        4.0912491579        1.4805876653
 C          4.3484752849        3.3325568650        0.6818789220
 C          3.7633454742        2.5365248662       -0.2929066068
 C          2.6630879030        0.2603400642        2.2652518537
 C          1.3475868598        0.5641204869        2.0133173817
 N         -1.1367406672        1.5536348261        1.0244820514
 C         -2.4329632529        1.6174971749        0.6263606955
 C         -3.3066973499        2.7387530809        0.6821030669
 C         -2.8742500288        3.9707861926        1.1838392908
 C         -3.7214796834        5.0500854951        1.1932485906
 C         -5.0150420229        4.9087532123        0.6942564699
 C         -5.4526046544        3.7002053190        0.2052952028
 C         -4.6203197275        2.5704233042        0.1883650143
 C         -5.0629744224        1.2697987861       -0.2831857562
 C         -6.3871028073        1.0485550202       -0.6879279562
 C         -6.8318294077       -0.1891801407       -1.0871343577
 C         -5.9646877114       -1.2769703557       -1.0805142162
 C         -4.6572062987       -1.1019544892       -0.7000637113
 C         -4.1747537906        0.1587444395       -0.3192794060
 C         -2.8325717315        0.3973737618        0.0880083605
 C         -1.2689166090       -2.7494592623        0.5779153224
 H         -1.1030150508       -5.3222691576       -1.6224474772
 H         -1.6684806521       -3.4970000835       -3.1904795037
 H         -1.9719575271       -1.1934121574       -2.3437673530
 H          0.8280728093       -1.5308146677       -0.5931080724
 H          3.0953648188       -2.1339302490       -0.0952793905
 H          6.4103247974       -1.7365495021        1.5015213131
 H          5.0697458579       -2.6620145841        0.7910814265
 H          4.7183696861       -0.8628276569       -0.8874509775
 H          6.3540476444       -1.5223799326       -0.9891221063
 H          7.3117274729        0.4725104483       -0.1214041994
 H          5.8465420397        0.8700102824        0.7834242818
 H          5.9998379485        1.0128346212       -2.2596226125
 H          6.3001722490        2.3902019882       -1.1885058334
 H          4.4057529006       -0.1947850370       -3.3357938938
 H          2.3297148184       -0.9769298323       -4.3796529699
 H          0.1479218848       -0.1410347685       -3.6568443123
 H         -0.0198718947        1.5273303149       -1.8263845391
 H          0.4690013286        3.2381420825        0.2434823246
 H          1.5151029595        4.6674056303        1.9721930434
 H          3.9465003884        4.7175298818        2.2477274892
 H          5.4189004684        3.3657133197        0.8198328941
 H          3.2108017697        0.7674594182        3.0435253178
 H          0.8395259108        1.3195708002        2.5897433691
 H         -1.8627266819        4.0396320869        1.5528452762
 H         -3.3921022085        6.0036359803        1.5778051463
 H         -5.6830376204        5.7576866875        0.6918579355
 H         -6.4606317475        3.6401691628       -0.1729855621
 H         -7.0929015983        1.8629825013       -0.6784846674
 H         -7.8597911597       -0.3208347222       -1.3905708662
 H         -6.3183593334       -2.2562548305       -1.3669416080
 H         -3.9975673531       -1.9543783349       -0.6739358914
 H         -1.1529815265       -2.5363789503        1.6288983671
  83
  -137.175510745400       0.286899517315487      !
 F         -1.6467475097       -6.1383064661        1.0944452829
 C         -0.7055462999       -5.1741216603        1.0596158524
 F         -0.5241673432       -4.7784880072        2.3259562069
 F          0.4342727185       -5.7887755628        0.6868508497
 C         -1.0731929865       -4.0562598737        0.1265838451
 C         -1.2319721370       -4.3489314020       -1.2231640358
 C         -1.5668488591       -3.3338913435       -2.1034423661
 C         -1.7356760029       -2.0410321963       -1.6441660341
 C         -1.5762888013       -1.7543416048       -0.2896907987
 N         -1.7117711777       -0.4392846937        0.1709942215
 C         -0.7124155034        0.3185775876        0.7558694815
 C          0.6521184191       -0.1096944574        0.9994821135
 C          1.3174577936       -1.0586675385        0.2297805362
 C          2.6402811102       -1.3735970526        0.4748586604
 C          3.3447067638       -0.7205729416        1.4810082881
 O          4.6516845942       -0.9297101702        1.7950667788
 C          5.4823142865       -1.6420061831        0.9003419462
 C          5.6774706938       -0.9047850692       -0.4278945097
 C          6.2089858798        0.5140114074       -0.2126991508
 C          5.7228252651        1.4759762146       -1.3047593757
 N          4.3113106253        1.7316360334       -1.1976400271
 C          3.3029409057        1.1536703696       -1.9310191770
 C          3.3664280828        0.2379742305       -2.9738372611
 C          2.1800641463       -0.1835058667       -3.5426428430
 C          0.9494416186        0.2980705302       -3.1022449440
 C          0.8755974203        1.2156617593       -2.0736685507
 C          2.0531714415        1.6415030066       -1.4755139074
 C          2.3372036535        2.5431227984       -0.3980633859
 C          1.5375406175        3.3033332674        0.4446338497
 C          2.1505417325        4.0730657566        1.4121314315
 C          3.5374651259        4.0940834378        1.5414145174
 C          4.3517322114        3.3432634315        0.7154414077
 C          3.7433945899        2.5622057095       -0.2572828992
 C          2.6807026192        0.2338000056        2.2562045046
 C          1.3603610322        0.5306131292        2.0211572332
 N         -1.1266687224        1.5286584086        1.0326610468
 C         -2.4185984669        1.5987882671        0.6211946928
 C         -3.2814293654        2.7294205509        0.6530896325
 C         -2.8446257916        3.9614846972        1.1511472604
 C         -3.6775917364        5.0517534004        1.1292531566
 C         -4.9613815416        4.9213425081        0.6030646526
 C         -5.4038850737        3.7126500961        0.1187392010
 C         -4.5860664877        2.5721744051        0.1325419577
 C         -5.0341472309        1.2723134528       -0.3360643171
 C         -6.3515345683        1.0632281565       -0.7682632878
 C         -6.8020839147       -0.1725626743       -1.1676661276
 C         -5.9491013354       -1.2709655684       -1.1304298373
 C         -4.6486496435       -1.1082899608       -0.7212468452
 C         -4.1584584902        0.1506310870       -0.3436622325
 C         -2.8205702387        0.3789878557        0.0837257263
 C         -1.2475295503       -2.7680965552        0.6049212450
 H         -1.0918497982       -5.3598595003       -1.5732387679
 H         -1.6903996580       -3.5523222126       -3.1525078309
 H         -1.9933325565       -1.2423691702       -2.3231060032
 H          0.8292989943       -1.5395916844       -0.6024313957
 H          3.1072920162       -2.1294753372       -0.1365206419
 H          6.4345908830       -1.7264673786        1.4309480089
 H          5.0928364742       -2.6528605936        0.7242848387
 H          4.7152449101       -0.8441587083       -0.9355764137
 H          6.3571666420       -1.4850863839       -1.0537021852
 H          7.2996068629        0.5140615833       -0.1871263227
 H          5.8466487563        0.8811840610        0.7492379975
 H          5.9314608618        1.0615874509       -2.2937465045
 H          6.2548398705        2.4290879016       -1.2167836277
 H          4.3093222593       -0.1413124667       -3.3407418144
 H          2.2083118418       -0.8993427934       -4.3515124641
 H          0.0469875340       -0.0500062447       -3.5839507542
 H         -0.0740799884        1.6010967615       -1.7347673042
 H          0.4637990913        3.2669138503        0.3552833819
 H          1.5510686929        4.6697168159        2.0836027763
 H          3.9877437147        4.7086711953        2.3075416490
 H          5.4248875280        3.3707515860        0.8316920170
 H          3.2331848977        0.7373440524        3.0334212664
 H          0.8535079088        1.2770113356        2.6103622296
 H         -1.8407597829        4.0223873156        1.5416557401
 H         -3.3439012217        6.0057023691        1.5090951138
 H         -5.6175010798        5.7791118267        0.5749598307
 H         -6.4040258558        3.6612616975       -0.2809906650
 H         -7.0474782599        1.8860918262       -0.7814552271
 H         -7.8240827530       -0.2943429410       -1.4941488835
 H         -6.3084504463       -2.2487332347       -1.4149639619
 H         -4.0014106960       -1.9690755570       -0.6695005909
 H         -1.1178588343       -2.5433900287        1.6518671132
  83
  -137.173371205200       2.981708757638324E-002 !
 F         -0.1369861484       -6.1344330333        0.6972055644
 C         -1.0738671894       -5.2820741576        1.1476159615
 F         -2.1714126448       -6.0323506425        1.3801874556
 F         -0.6547936363       -4.8528983663        2.3448974771
 C         -1.3510193706       -4.1698638599        0.1766727540
 C         -1.5269055058       -4.4843312302       -1.1654456993
 C         -1.8062263563       -3.4731346271       -2.0695974598
 C         -1.9091129335       -2.1631195970       -1.6405968516
 C         -1.7352029566       -1.8547756161       -0.2924983897
 N         -1.8122817551       -0.5249325909        0.1425661284
 C         -0.7691845081        0.2115327959        0.6724175343
 C          0.6025071256       -0.2286693660        0.8363324019
 C          1.3806804038        0.4490823460        1.7746500646
 C          2.7328952777        0.2100073262        1.8907202684
 C          3.3483323456       -0.7142737446        1.0507410968
 O          4.6819170059       -0.9639318121        1.0277094022
 C          5.5666203943        0.0552605639        1.4615801044
 C          6.8052115469        0.0331165815        0.5650008371
 C          6.4673724291        0.1377769524       -0.9234577724
 C          5.9300109195        1.5026263946       -1.3837855927
 N          4.5218238535        1.6938523426       -1.1533771766
 C          3.9408084304        2.5774725507       -0.2715577117
 C          4.5257271413        3.4184937473        0.6671081780
 C          3.6927667058        4.1912923484        1.4540555466
 C          2.3069943655        4.1349782456        1.3241568536
 C          1.7150529358        3.3097156605        0.3894258729
 C          2.5336043310        2.5315152838       -0.4174971416
 C          2.2661087799        1.5835411081       -1.4581561208
 C          1.0980313310        1.1308894775       -2.0549139134
 C          1.1923721395        0.1837217929       -3.0541709645
 C          2.4320301115       -0.3002291408       -3.4657969900
 C          3.6086372813        0.1446878459       -2.8945031691
 C          3.5222886587        1.0894807922       -1.8808176604
 C          2.5643101449       -1.4411191568        0.1541738251
 C          1.2144977749       -1.1992494337        0.0417080219
 N         -1.1381219645        1.4365196473        0.9530428455
 C         -2.4466283663        1.5340060511        0.6060775634
 C         -3.2820363780        2.6830060662        0.6796521036
 C         -2.7947617487        3.9036760033        1.1585834617
 C         -3.6063899031        5.0096381120        1.1875568017
 C         -4.9190090326        4.9065085288        0.7309366426
 C         -5.4099481163        3.7097190202        0.2639228923
 C         -4.6148432033        2.5537282786        0.2277496398
 C         -5.1116929939        1.2657731853       -0.2241376338
 C         -6.4498428449        1.0886233952       -0.6029905461
 C         -6.9444522207       -0.1348282412       -0.9874616364
 C         -6.1157873413       -1.2522124161       -0.9908055022
 C         -4.7964079093       -1.1209087840       -0.6353101580
 C         -4.2631679101        0.1241974229       -0.2710487840
 C         -2.9035750122        0.3201619189        0.0994934920
 C         -1.4562950288       -2.8628484159        0.6243472047
 H         -1.4416176313       -5.5087813897       -1.4927196039
 H         -1.9403476445       -3.7092629087       -3.1135730926
 H         -2.1262910457       -1.3683260328       -2.3385129011
 H          0.9065210800        1.1882535192        2.3996484258
 H          3.3031140168        0.7564816420        2.6257492179
 H          5.0785821542        1.0314691539        1.4007132440
 H          5.8582739920       -0.1271101984        2.5049603019
 H          7.3321815615       -0.9087989029        0.7272293223
 H          7.4654353292        0.8491000217        0.8656109071
 H          5.7346974675       -0.6330793918       -1.1637065492
 H          7.3764946903       -0.0703434821       -1.4910327904
 H          6.1105089016        1.5990329078       -2.4616874389
 H          6.4744929618        2.3057298869       -0.8822535786
 H          5.5979818782        3.4763804531        0.7909404161
 H          4.1289767973        4.8508095742        2.1903095762
 H          1.6934188515        4.7483932182        1.9668723160
 H          0.6424549441        3.2456030872        0.2950438146
 H          0.1419057778        1.5193425387       -1.7382917378
 H          0.2976281024       -0.1863533506       -3.5342100709
 H          2.4747397236       -1.0375221969       -4.2544263709
 H          4.5599597437       -0.2332582991       -3.2373445627
 H          3.0457724387       -2.1694229809       -0.4792427706
 H          0.6583906834       -1.7324927106       -0.7118019526
 H         -1.7705362959        3.9420231462        1.4956935436
 H         -3.2349134917        5.9546276903        1.5549847319
 H         -5.5595472645        5.7763710152        0.7442721009
 H         -6.4311528764        3.6799607245       -0.0810938115
 H         -7.1263036796        1.9276463380       -0.5868570891
 H         -7.9814332628       -0.2317210003       -1.2724277886
 H         -6.5081976197       -2.2198373361       -1.2659611847
 H         -4.1659723776       -1.9955521703       -0.6184112974
 H         -1.3134666492       -2.6207279877        1.6658397551
  83
  -137.173215137100       2.527791727033916E-002 !
 F         -0.1180369879       -6.0032917148        0.8181220514
 C         -1.1918852219       -5.2528843413        1.1248461892
 F         -2.2446275638       -6.0957159008        1.1086532215
 F         -1.0371689737       -4.8703361892        2.3983828048
 C         -1.3757497888       -4.1069480294        0.1711076044
 C         -1.4294369298       -4.3827810998       -1.1902204199
 C         -1.6142332348       -3.3450769925       -2.0882460707
 C         -1.7425849935       -2.0459210880       -1.6336335020
 C         -1.6853904471       -1.7759395477       -0.2675773352
 N         -1.7977746523       -0.4534943391        0.1876189024
 C         -0.7830698665        0.3278895175        0.7092067046
 C          0.5974374105       -0.0603092894        0.9201241064
 C          1.3490520211        0.7430295689        1.7798360165
 C          2.7005372204        0.5419475958        1.9536976062
 C          3.3456822208       -0.4757101595        1.2555435368
 O          4.6813653640       -0.7106983541        1.2972980576
 C          5.5433489725        0.3598417593        1.6429849066
 C          6.8326839677        0.2208656132        0.8329730011
 C          6.5833844707        0.1109094808       -0.6724105524
 C          6.0559864773        1.3869629980       -1.3486491175
 N          4.6325646494        1.5707261569       -1.2345618453
 C          3.9784009180        2.5501310134       -0.5217139824
 C          4.4873168953        3.5432585280        0.3061461006
 C          3.5912810031        4.3923568048        0.9276452605
 C          2.2167575067        4.2646636965        0.7420021753
 C          1.7002057700        3.2874945217       -0.0845417458
 C          2.5826934127        2.4289692196       -0.7260224885
 C          2.4006854116        1.3283493948       -1.6254463880
 C          1.2809443331        0.7431331475       -2.1995607089
 C          1.4586730139       -0.3333736195       -3.0447395959
 C          2.7338973682       -0.8184419407       -3.3258132967
 C          3.8635507139       -0.2474739225       -2.7723259117
 C          3.6928575489        0.8287895938       -1.9118709946
 C          2.5901423236       -1.3220933939        0.4439232183
 C          1.2404828032       -1.1153947350        0.2709033131
 N         -1.2013190339        1.5422087293        0.9724325650
 C         -2.5126031805        1.5838927679        0.6297529824
 C         -3.3990041191        2.6940865503        0.7060184847
 C         -2.9612652923        3.9397933950        1.1677642687
 C         -3.8251302229        5.0052628279        1.2093338498
 C         -5.1410247091        4.8356163752        0.7828361175
 C         -5.5828004582        3.6137945662        0.3316470294
 C         -4.7330522934        2.4978063551        0.2828069467
 C         -5.1756021768        1.1861185404       -0.1576894373
 C         -6.5108825524        0.9429359421       -0.5089541061
 C         -6.9508252886       -0.3021054897       -0.8910936908
 C         -6.0653290298       -1.3745494787       -0.9254300943
 C         -4.7475423943       -1.1787533595       -0.5939599887
 C         -4.2727924199        0.0879087894       -0.2229053280
 C         -2.9215965159        0.3468522569        0.1386604476
 C         -1.5036892809       -2.8109875721        0.6438457579
 H         -1.3269439086       -5.3997664488       -1.5356174825
 H         -1.6569687311       -3.5523577604       -3.1460192687
 H         -1.8914713638       -1.2298555868       -2.3247194812
 H          0.8504443346        1.5474739825        2.2953146632
 H          3.2467031693        1.1868977770        2.6242817282
 H          5.0636847136        1.3173832002        1.4222402742
 H          5.7718216896        0.3215959771        2.7170545197
 H          7.3491556969       -0.6843616134        1.1570854822
 H          7.4741085805        1.0765129549        1.0533134164
 H          5.8757095076       -0.7006632917       -0.8429818044
 H          7.5271760620       -0.1554094337       -1.1523271696
 H          6.3052830292        1.3410081081       -2.4161208406
 H          6.5526886306        2.2641187429       -0.9284102998
 H          5.5494661618        3.6606388328        0.4689032802
 H          3.9678808439        5.1702450270        1.5759825309
 H          1.5509925670        4.9424937677        1.2545900471
 H          0.6355320630        3.1758883537       -0.2176027087
 H          0.2963241521        1.1305342160       -1.9837105744
 H          0.6035105416       -0.8090667276       -3.5029404489
 H          2.8423034400       -1.6587580856       -3.9961338478
 H          4.8437357485       -0.6303485422       -3.0132021904
 H          3.0930578618       -2.1203907783       -0.0787852236
 H          0.7115394621       -1.7533845485       -0.4171371174
 H         -1.9326084943        4.0287588279        1.4808429816
 H         -3.4927492662        5.9692876412        1.5646266569
 H         -5.8233012676        5.6727871013        0.8077886623
 H         -6.6086652264        3.5322325026        0.0097376768
 H         -7.2286690199        1.7461475227       -0.4730251558
 H         -7.9877832682       -0.4505344406       -1.1529879903
 H         -6.4122241455       -2.3578540829       -1.2058904519
 H         -4.0717597486       -2.0188740266       -0.6039416535
 H         -1.4544082430       -2.5978538503        1.7001715901
  83
  -137.172746916800       1.540146867395461E-002 !
 F         -2.4826858862       -5.6797661624       -0.9043817468
 C         -2.1975616326       -4.8735044590        0.1317466523
 F         -3.3602158677       -4.6230277338        0.7503940353
 F         -1.4699318959       -5.6199803939        0.9905754690
 C         -1.4679833090       -3.6297666038       -0.2863853069
 C         -0.4982112971       -3.7146784112       -1.2788902614
 C          0.1983833381       -2.5754861427       -1.6444822137
 C         -0.0696898796       -1.3643950762       -1.0326166324
 C         -1.0422399951       -1.2849696931       -0.0406309819
 N         -1.3266349266       -0.0640442171        0.5885477724
 C         -0.5041672367        0.6627075165        1.4324724299
 C          0.8869524462        0.3969801976        1.7442290562
 C          1.5423695282       -0.8144696270        1.5401945536
 C          2.8916053313       -0.9465058673        1.8092770617
 C          3.6163384251        0.1209677926        2.3273091817
 O          4.9481583264        0.0915780250        2.6200281511
 C          5.7901120261       -0.7653282564        1.8747431025
 C          5.7783262127       -0.4230200473        0.3813479154
 C          6.0838098921        1.0582574248        0.1680210727
 C          5.7904725006        1.5229725973       -1.2621275519
 N          4.4203902599        1.3107310044       -1.6457064111
 C          3.9653614444        0.3733764379       -2.5405952379
 C          4.6626554789       -0.5982206538       -3.2473317893
 C          3.9559109306       -1.4038503914       -4.1185482669
 C          2.5830445713       -1.2505380100       -4.2995533603
 C          1.8790279786       -0.2937442748       -3.5960213882
 C          2.5643389423        0.5149525259       -2.6977120078
 C          2.1640631915        1.5777228641       -1.8197318157
 C          0.9389546681        2.1607274297       -1.5167463678
 C          0.9054692825        3.1963151279       -0.6061970995
 C          2.0767211948        3.6633520664       -0.0143254357
 C          3.3060047696        3.1026359996       -0.3000934837
 C          3.3460379285        2.0440802159       -1.1968343622
 C          2.9466937262        1.3135257437        2.6089341323
 C          1.6120904097        1.4489292536        2.3161553361
 N         -1.1359720134        1.6877029118        1.9505608788
 C         -2.3981298299        1.6573146454        1.4562785937
 C         -3.4770736177        2.5345240475        1.7592695136
 C         -3.3190299642        3.5956454765        2.6567057168
 C         -4.3841671928        4.4020575603        2.9709573124
 C         -5.6262383525        4.1514882703        2.3909110758
 C         -5.7908958670        3.1156771286        1.5012458026
 C         -4.7240686943        2.2757979958        1.1462361203
 C         -4.8548224898        1.1991668385        0.1797772311
 C         -6.0565653051        0.9719887270       -0.5056720039
 C         -6.1778541187       -0.0072267760       -1.4627787138
 C         -5.0802889392       -0.7937027784       -1.7974649904
 C         -3.8876506498       -0.6112716686       -1.1421738947
 C         -3.7542127226        0.3530494331       -0.1320868295
 C         -2.5496405265        0.5759617971        0.5925609120
 C         -1.7423116924       -2.4262411211        0.3427591734
 H         -0.2994257906       -4.6615141060       -1.7556286135
 H          0.9554117248       -2.6261268514       -2.4110501699
 H          0.4813412443       -0.4791090313       -1.3026384192
 H          1.0114352672       -1.6821421103        1.1861261316
 H          3.3662778998       -1.8983726745        1.6260279997
 H          6.7840084115       -0.5931117351        2.2961412599
 H          5.5269109000       -1.8190928235        2.0298951743
 H          4.7904788829       -0.6463405311       -0.0264193189
 H          6.5101776134       -1.0497503611       -0.1306142454
 H          7.1319247490        1.2608809901        0.3955852076
 H          5.4703530815        1.6370598378        0.8587154562
 H          6.4276278035        0.9850631286       -1.9669414689
 H          6.0189157442        2.5916533495       -1.3455157054
 H          5.7279584483       -0.7291253601       -3.1306942261
 H          4.4801977745       -2.1642058455       -4.6783036377
 H          2.0683464698       -1.8872220867       -5.0042081605
 H          0.8169123608       -0.1689096370       -3.7479707588
 H          0.0311046174        1.8171913112       -1.9924025476
 H         -0.0372394888        3.6543226343       -0.3482426214
 H          2.0214413496        4.4859420299        0.6825993180
 H          4.2030116793        3.4860971426        0.1610394416
 H          3.5046300224        2.1254270005        3.0482182990
 H          1.0946697419        2.3732217592        2.5106244034
 H         -2.3438196314        3.7462739736        3.0926629938
 H         -4.2678551115        5.2205133199        3.6656247486
 H         -6.4701599790        4.7773741307        2.6422169465
 H         -6.7711355080        2.9590615514        1.0803473391
 H         -6.9183428020        1.5829936992       -0.2928004890
 H         -7.1208779289       -0.1543486414       -1.9677140010
 H         -5.1632834754       -1.5419411561       -2.5717293767
 H         -3.0364704386       -1.2079368169       -1.4259271167
 H         -2.5000370440       -2.3641591032        1.1082220195
  83
  -137.172573671000       1.282164888559401E-002 !
 F         -2.5206439118       -5.7417170935       -0.7492428559
 C         -2.1046767180       -4.9627010721        0.2639955747
 F         -3.1790635764       -4.7292190865        1.0302068575
 F         -1.2762663609       -5.7308640203        1.0028929460
 C         -1.4299776039       -3.7090990668       -0.2134175204
 C         -0.5408405481       -3.7888149413       -1.2794082946
 C          0.1077262882       -2.6435063209       -1.7087544635
 C         -0.1290694033       -1.4316788518       -1.0857835378
 C         -1.0215162943       -1.3574559939       -0.0207140472
 N         -1.2732085462       -0.1304725602        0.6143688813
 C         -0.4340562410        0.5711116439        1.4619634063
 C          0.9464237935        0.2661274813        1.7809075014
 C          1.6018853254       -0.9269882388        1.4869465461
 C          2.9513522149       -1.0775568157        1.7436777550
 C          3.6773794578       -0.0496567856        2.3344073122
 O          5.0160961785       -0.0948621673        2.5950622214
 C          5.8447036942       -0.8390311610        1.7234035379
 C          5.7299015333       -0.3677386631        0.2696013150
 C          5.9135961323        1.1452564212        0.1711197385
 C          5.5585204046        1.6931905280       -1.2148472397
 N          4.1986701631        1.4178578468       -1.5957905337
 C          3.7931051242        0.5119079782       -2.5453445165
 C          4.5387256668       -0.3901685418       -3.2934534715
 C          3.8758558024       -1.1796668863       -4.2126112031
 C          2.4989695330       -1.0788004910       -4.3993144048
 C          1.7474459062       -0.1908142615       -3.6562076942
 C          2.3889830532        0.6017040731       -2.7119776764
 C          1.9351946484        1.6023659284       -1.7879270884
 C          0.6846155658        2.1270267704       -1.4814359289
 C          0.5979539493        3.1156935796       -0.5234016698
 C          1.7400364398        3.5871148369        0.1194831379
 C          2.9937240382        3.0845457830       -0.1692194183
 C          3.0890437762        2.0810829644       -1.1231414272
 C          3.0063443323        1.1141418295        2.7149980547
 C          1.6712108199        1.2698816341        2.4352471108
 N         -1.0313872590        1.6279091548        1.9580619660
 C         -2.2816262964        1.6486493505        1.4373493320
 C         -3.3140216279        2.5966553634        1.6828449983
 C         -3.1116358785        3.6816835989        2.5420054092
 C         -4.1269703976        4.5728343155        2.7839235947
 C         -5.3627991539        4.3848159370        2.1678530615
 C         -5.5707031188        3.3244814486        1.3169758972
 C         -4.5554318652        2.3963942723        1.0378429291
 C         -4.7312122684        1.2863823161        0.1172668422
 C         -5.9371974213        1.0892381939       -0.5700797871
 C         -6.1022678892        0.0720962337       -1.4798558189
 C         -5.0466409148       -0.7892465912       -1.7603942507
 C         -3.8517440739       -0.6378024645       -1.1013159507
 C         -3.6735223224        0.3701747870       -0.1420973031
 C         -2.4666577243        0.5612905352        0.5872195074
 C         -1.6732829000       -2.5040195474        0.4257633665
 H         -0.3668299561       -4.7374693695       -1.7624322785
 H          0.8027468557       -2.6903279136       -2.5324149016
 H          0.3851181276       -0.5404562515       -1.4037128503
 H          1.0739261860       -1.7641993754        1.0631914725
 H          3.4285642507       -2.0116083500        1.4885447784
 H          6.8543364048       -0.6604147068        2.1025105631
 H          5.6345079975       -1.9139612505        1.7938577252
 H          4.7429721957       -0.6311739363       -0.1156820537
 H          6.4800925411       -0.8890817456       -0.3271746173
 H          6.9470557704        1.4116913449        0.4001911138
 H          5.2700925075        1.6213464251        0.9111092291
 H          6.2171385029        1.2557536297       -1.9681664227
 H          5.7112103183        2.7783953971       -1.2200024285
 H          5.6075781716       -0.4805330354       -3.1712464146
 H          4.4383313094       -1.8859199621       -4.8053144064
 H          2.0189732266       -1.7011105987       -5.1402998128
 H          0.6820359364       -0.1050306913       -3.8133600044
 H         -0.2015885611        1.7765940453       -1.9918962430
 H         -0.3638973939        3.5320194568       -0.2657758007
 H          1.6412107895        4.3673900470        0.8586737952
 H          3.8673890314        3.4698319705        0.3333981362
 H          3.5644586700        1.8903663033        3.2148615214
 H          1.1530641262        2.1767002332        2.6980326202
 H         -2.1420375542        3.7849999531        3.0035276470
 H         -3.9762640471        5.4114333326        3.4472528106
 H         -6.1669812670        5.0804491053        2.3586758346
 H         -6.5438530751        3.2209144105        0.8641817082
 H         -6.7684651538        1.7518239009       -0.3939669090
 H         -7.0479462532       -0.0504152272       -1.9867140790
 H         -5.1641429223       -1.5728265522       -2.4941605178
 H         -3.0345228207       -1.2983920872       -1.3389362546
 H         -2.3692919506       -2.4453719548        1.2480490011
