  56
        -93.53649571
 N          8.9862778394        0.8650361329       -0.7855650799
 C          7.9002633369        0.5767292622       -0.5377811317
 C          6.5832000493        0.2266030684       -0.2337615381
 N          5.5599565674        0.8361546458       -0.7875624491
 C          4.3341583762        0.5466038291       -0.5383797804
 C          4.0584359839       -0.5707962499        0.4575346446
 N          5.0692969894       -1.1580157910        0.9906073616
 C          6.3180179507       -0.8482996185        0.7273235677
 C          7.3843874169       -1.5146957529        1.3343039274
 N          8.2637231205       -2.0630725491        1.8337660357
 C          2.6498597389       -0.7011161112        0.5566421015
 C          1.7973547910       -1.5345148965        1.2722376248
 C          0.4276810117       -1.3609310990        1.1056466730
 C         -0.1383473134       -0.3986021800        0.2737782163
 C         -1.5981605431       -0.2652370425        0.2053795775
 C         -2.3978342335       -1.3858115456        0.0041826805
 C         -3.7834050510       -1.2716936342       -0.0584187880
 C         -4.6186757715       -2.4603231989       -0.2850543120
 C         -5.8036293425       -2.6402673821        0.4256067677
 C         -6.5864604635       -3.7597861949        0.2154285069
 C         -6.2024453913       -4.7137889641       -0.7126330021
 C         -5.0281063608       -4.5431847082       -1.4272649719
 C         -4.2401483040       -3.4279018502       -1.2135475981
 C         -4.3656562929       -0.0173435129        0.0928406252
 C         -3.5850566307        1.1149927740        0.3039638275
 C         -4.2102667643        2.4360570976        0.4619848028
 C         -5.3835019395        2.5836811291        1.1993399755
 C         -5.9710456791        3.8259807059        1.3460614738
 C         -5.4004169515        4.9407711167        0.7541186271
 C         -4.2349508653        4.8059663464        0.0178444977
 C         -3.6425658967        3.5654741399       -0.1248406401
 C         -2.2007838936        0.9801047629        0.3588512221
 C          0.7115225331        0.4492544709       -0.4917027298
 C          0.3445968233        1.4233529309       -1.4456780290
 C          1.3073112522        2.1624060011       -2.1074092892
 C          2.6757722102        1.9969705554       -1.8953088235
 C          3.0742058746        1.0248568222       -0.9869792755
 C          2.0870513124        0.2664545584       -0.3107500664
 H          2.1822993710       -2.2884104444        1.9404145599
 H         -0.2399977847       -1.9925119261        1.6749471916
 H         -1.9345558239       -2.3552589596       -0.1072946766
 H         -6.0989274541       -1.9077827518        1.1628972642
 H         -7.4990127294       -3.8902770233        0.7783830123
 H         -6.8158188369       -5.5867781198       -0.8782441559
 H         -4.7262398088       -5.2819705500       -2.1551309562
 H         -3.3339212301       -3.2913747579       -1.7858839549
 H         -5.4373649022        0.0841082338        0.0063329400
 H         -5.8236110121        1.7212254747        1.6784292267
 H         -6.8769620036        3.9262188451        1.9256152181
 H         -5.8616016571        5.9104749528        0.8665749132
 H         -3.7871592964        5.6713439350       -0.4483442744
 H         -2.7422968311        3.4662852773       -0.7140389383
 H         -1.5874494069        1.8434041095        0.5719658166
 H         -0.6985333251        1.5793963308       -1.6755640054
 H          0.9883491933        2.9012790849       -2.8284941213
 H          3.3976071785        2.5949121322       -2.4284341123
