  56
        -93.53649571
 N          8.9862778394        0.8650361329       -0.7855650799
 C          7.9002633369        0.5767292622       -0.5377811317
 C          6.5832000493        0.2266030684       -0.2337615381
 N          5.5599565674        0.8361546458       -0.7875624491
 C          4.3341583762        0.5466038291       -0.5383797804
 C          4.0584359839       -0.5707962499        0.4575346446
 N          5.0692969894       -1.1580157910        0.9906073616
 C          6.3180179507       -0.8482996185        0.7273235677
 C          7.3843874169       -1.5146957529        1.3343039274
 N          8.2637231205       -2.0630725491        1.8337660357
 C          2.6498597389       -0.7011161112        0.5566421015
 C          1.7973547910       -1.5345148965        1.2722376248
 C          0.4276810117       -1.3609310990        1.1056466730
 C         -0.1383473134       -0.3986021800        0.2737782163
 C         -1.5981605431       -0.2652370425        0.2053795775
 C         -2.3978342335       -1.3858115456        0.0041826805
 C         -3.7834050510       -1.2716936342       -0.0584187880
 C         -4.6186757715       -2.4603231989       -0.2850543120
 C         -5.8036293425       -2.6402673821        0.4256067677
 C         -6.5864604635       -3.7597861949        0.2154285069
 C         -6.2024453913       -4.7137889641       -0.7126330021
 C         -5.0281063608       -4.5431847082       -1.4272649719
 C         -4.2401483040       -3.4279018502       -1.2135475981
 C         -4.3656562929       -0.0173435129        0.0928406252
 C         -3.5850566307        1.1149927740        0.3039638275
 C         -4.2102667643        2.4360570976        0.4619848028
 C         -5.3835019395        2.5836811291        1.1993399755
 C         -5.9710456791        3.8259807059        1.3460614738
 C         -5.4004169515        4.9407711167        0.7541186271
 C         -4.2349508653        4.8059663464        0.0178444977
 C         -3.6425658967        3.5654741399       -0.1248406401
 C         -2.2007838936        0.9801047629        0.3588512221
 C          0.7115225331        0.4492544709       -0.4917027298
 C          0.3445968233        1.4233529309       -1.4456780290
 C          1.3073112522        2.1624060011       -2.1074092892
 C          2.6757722102        1.9969705554       -1.8953088235
 C          3.0742058746        1.0248568222       -0.9869792755
 C          2.0870513124        0.2664545584       -0.3107500664
 H          2.1822993710       -2.2884104444        1.9404145599
 H         -0.2399977847       -1.9925119261        1.6749471916
 H         -1.9345558239       -2.3552589596       -0.1072946766
 H         -6.0989274541       -1.9077827518        1.1628972642
 H         -7.4990127294       -3.8902770233        0.7783830123
 H         -6.8158188369       -5.5867781198       -0.8782441559
 H         -4.7262398088       -5.2819705500       -2.1551309562
 H         -3.3339212301       -3.2913747579       -1.7858839549
 H         -5.4373649022        0.0841082338        0.0063329400
 H         -5.8236110121        1.7212254747        1.6784292267
 H         -6.8769620036        3.9262188451        1.9256152181
 H         -5.8616016571        5.9104749528        0.8665749132
 H         -3.7871592964        5.6713439350       -0.4483442744
 H         -2.7422968311        3.4662852773       -0.7140389383
 H         -1.5874494069        1.8434041095        0.5719658166
 H         -0.6985333251        1.5793963308       -1.6755640054
 H          0.9883491933        2.9012790849       -2.8284941213
 H          3.3976071785        2.5949121322       -2.4284341123
  56
        -93.53637238
 N          8.9915817066        0.8774160641       -0.7077892259
 C          7.9036308682        0.5860200556       -0.4729854286
 C          6.5848084249        0.2286605713       -0.1860958972
 N          5.5656904594        0.8490899238       -0.7353887053
 C          4.3380775406        0.5546717656       -0.5024229149
 C          4.0541923527       -0.5829926388        0.4686071444
 N          5.0609817446       -1.1811190388        0.9970047465
 C          6.3118640567       -0.8660972047        0.7505656350
 C          7.3734163758       -1.5457003211        1.3513611379
 N          8.2468577170       -2.1075563735        1.8464216417
 C          2.6447044523       -0.7131381673        0.5551451559
 C          1.7862611622       -1.5585501029        1.2493080722
 C          0.4180653854       -1.3793885741        1.0767311303
 C         -0.1414239197       -0.4008313018        0.2590926630
 C         -1.6009842302       -0.2664071832        0.1867582159
 C         -2.3996060972       -1.3846132994       -0.0327247561
 C         -3.7848446726       -1.2703716292       -0.0990689433
 C         -4.6192918924       -2.4583886776       -0.3330949528
 C         -5.8003623047       -2.6472617228        0.3813992191
 C         -6.5821867114       -3.7660685060        0.1631419367
 C         -6.2011041235       -4.7096447219       -0.7765493851
 C         -5.0305303835       -4.5297987731       -1.4946793741
 C         -4.2431265043       -3.4156615185       -1.2728494633
 C         -4.3682132518       -0.0173407603        0.0594512364
 C         -3.5887759049        1.1112022300        0.2909841385
 C         -4.2136209426        2.4322304750        0.4570565096
 C         -3.7614519261        3.3137910594        1.4367858521
 C         -4.3498587000        4.5550497838        1.5904052145
 C         -5.3929472698        4.9387247672        0.7634128426
 C         -5.8479704060        4.0711095383       -0.2159009210
 C         -5.2660955494        2.8263680790       -0.3665872643
 C         -2.2053762619        0.9759708302        0.3567873885
 C          0.7147098837        0.4610423813       -0.4839127934
 C          0.3561536680        1.4558110006       -1.4198232612
 C          1.3250927865        2.2066590627       -2.0590860243
 C          2.6916940254        2.0342807612       -1.8413285592
 C          3.0818313740        1.0428264962       -0.9504942572
 C          2.0888653144        0.2720805576       -0.2970194286
 H          2.1655093418       -2.3256108891        1.9057484386
 H         -0.2542265784       -2.0206240514        1.6296941140
 H         -1.9357374420       -2.3525786723       -0.1549284933
 H         -6.0932428450       -1.9222710971        1.1265509896
 H         -7.4918478885       -3.9035272275        0.7278672343
 H         -6.8140941445       -5.5816132371       -0.9489185652
 H         -4.7308971438       -5.2605215513       -2.2317716339
 H         -3.3391960101       -3.2720573804       -1.8468584117
 H         -5.4425157341        0.0797654031        0.0053910397
 H         -2.9592639086        3.0130393723        2.0954348256
 H         -3.9945733025        5.2257295810        2.3591734506
 H         -5.8492558734        5.9100973117        0.8816622827
 H         -6.6579639089        4.3671155851       -0.8665101221
 H         -5.6125245896        2.1604719912       -1.1441481870
 H         -1.5920652615        1.8437467177        0.5508139079
 H         -0.6845631521        1.6230413849       -1.6522466986
 H          1.0115698252        2.9617615255       -2.7654226034
 H          3.4185094287        2.6419463592       -2.3564024767
  56
        -93.53626419
 N          8.9014914673       -1.5201064055        0.6715138323
 C          7.8381265539       -1.1394835509        0.4542057677
 C          6.5488865101       -0.6738688066        0.1893658361
 N          5.4967413442       -1.1664571103        0.8024186587
 C          4.2937660888       -0.7725892801        0.5884642921
 C          4.0822941636        0.3342497853       -0.4353686925
 N          5.1208466210        0.8069997047       -1.0256828670
 C          6.3452088961        0.3892810531       -0.7996698195
 C          7.4419148855        0.9280940219       -1.4754075836
 N          8.3473251312        1.3686229850       -2.0322276057
 C          2.6868412079        0.5783488946       -0.5012589088
 C          1.8844803044        1.4535572363       -1.2250314079
 C          0.5084963189        1.3807059734       -1.0364538873
 C         -0.1109114837        0.4802919549       -0.1737634426
 C         -1.5762595444        0.4164880277       -0.1247334425
 C         -2.2221261332       -0.8085278006       -0.2669119797
 C         -3.6109058334       -0.8895753111       -0.2539311158
 C         -4.2782619404       -2.1908289648       -0.4089205078
 C         -3.8123514219       -3.1183272407       -1.3385979472
 C         -4.4403141218       -4.3405708667       -1.4872839506
 C         -5.5382634657       -4.6590771095       -0.7051096158
 C         -6.0076936803       -3.7454936691        0.2242813351
 C         -5.3857130117       -2.5195947148        0.3697704718
 C         -4.3533022218        0.2759274594       -0.0954751434
 C         -3.7276093888        1.5111605402        0.0404848424
 C         -4.5267425475        2.7359171327        0.1958895410
 C         -5.6705412546        2.9369339680       -0.5740234420
 C         -6.4228139299        4.0871837841       -0.4277238661
 C         -6.0495401648        5.0508077905        0.4947680645
 C         -4.9156851662        4.8596449386        1.2670914964
 C         -4.1570568862        3.7139695613        1.1166850761
 C         -2.3372214430        1.5718691792        0.0220950415
 C          0.6894778517       -0.3961884049        0.6127298794
 C          0.2691625928       -1.3137452734        1.6002792720
 C          1.1880749625       -2.0997800606        2.2704311746
 C          2.5606859083       -2.0428689702        2.0300988248
 C          3.0122145631       -1.1305407730        1.0852671592
 C          2.0714117358       -0.3165393677        0.4075664800
 H          2.3109180593        2.1589925559       -1.9204345634
 H         -0.1221396464        2.0387685559       -1.6179809488
 H         -1.6353000865       -1.7055671167       -0.3999720284
 H         -2.9667399075       -2.8683835980       -1.9630753339
 H         -4.0728166943       -5.0472765449       -2.2168511157
 H         -6.0262962347       -5.6153419085       -0.8198584296
 H         -6.8612676869       -3.9904614804        0.8391631732
 H         -5.7453124169       -1.8173924392        1.1080815494
 H         -5.4318671098        0.2223258040       -0.0828131212
 H         -5.9568950529        2.1953026703       -1.3057851341
 H         -7.3029232596        4.2338535548       -1.0364755611
 H         -6.6392720936        5.9478273942        0.6104107833
 H         -4.6219202852        5.6068649281        1.9896164812
 H         -3.2831101973        3.5617134688        1.7335867310
 H         -1.8411959001        2.5263460362        0.1218813695
 H         -0.7788735306       -1.3928011814        1.8466236126
 H          0.8287874120       -2.7919913190        3.0181785415
 H          3.2464697880       -2.6786655334        2.5670665474
  56
        -93.53392123
 N          8.9620938637        0.1535334037       -1.2781776885
 C          7.8822678861        0.0574054708       -0.8928254395
 C          6.5728442763       -0.0585971747       -0.4224750017
 N          5.5380979989        0.2301616045       -1.1776382891
 C          4.3182262650        0.1403720576       -0.7863433240
 C          4.0658259653       -0.3312424090        0.6394105486
 N          5.0869548816       -0.6097599475        1.3661539937
 C          6.3298426615       -0.5129194215        0.9508472515
 C          7.4075261914       -0.8299876218        1.7792644828
 N          8.2963148783       -1.0930622795        2.4610597156
 C          2.6585393623       -0.3493508587        0.8293385066
 C          1.8218105830       -0.6848104325        1.8865015915
 C          0.4458927007       -0.5780043439        1.6886414004
 C         -0.1273088334       -0.1535967075        0.4987413202
 C         -1.5976832122       -0.0678722855        0.3665725608
 C         -2.3260397677       -1.1825526309       -0.0240062089
 C         -3.7117173688       -1.1147757313       -0.1524905041
 C         -4.4792044613       -2.2954237571       -0.5741802988
 C         -5.6980117892       -2.6015111063        0.0282248243
 C         -6.4181449457       -3.7131157404       -0.3664940418
 C         -5.9362032786       -4.5335838381       -1.3731500562
 C         -4.7271478641       -4.2372864971       -1.9808412446
 C         -4.0022621693       -3.1295917432       -1.5834112794
 C         -4.3553220960        0.0865378335        0.1244004744
 C         -3.6394392495        1.2132590398        0.5147776354
 C         -4.3343993304        2.4747785446        0.8092993094
 C         -5.5297253767        2.4717936287        1.5257287265
 C         -6.1813486279        3.6564481864        1.8118747232
 C         -5.6536653211        4.8626860855        1.3811784025
 C         -4.4678103831        4.8771162657        0.6653872877
 C         -3.8106107343        3.6939756158        0.3842841268
 C         -2.2536678535        1.1268819744        0.6282204023
 C          0.7023528089        0.1947209798       -0.5986883023
 C          0.3035117414        0.6352767909       -1.8793872074
 C          1.2486548470        0.9274021195       -2.8443343156
 C          2.6228465735        0.8118095543       -2.6276317759
 C          3.0487694779        0.3806153666       -1.3776174487
 C          2.0800441696        0.0807682398       -0.3891322990
 H          2.2191746254       -1.0181935592        2.8319798699
 H         -0.2132717627       -0.8377508961        2.5053219372
 H         -1.8105379304       -2.1134243372       -0.2112259274
 H         -6.0695332478       -1.9753992804        0.8262560390
 H         -7.3578542557       -3.9421109363        0.1137298037
 H         -6.5004404290       -5.4006181547       -1.6825499011
 H         -4.3490623381       -4.8716205130       -2.7692111651
 H         -3.0686181039       -2.8936723767       -2.0733148516
 H         -5.4253179756        0.1575196611       -0.0050574293
 H         -5.9358778408        1.5352492851        1.8795593779
 H         -7.1030449840        3.6399280702        2.3748539173
 H         -6.1642112002        5.7878376841        1.6030113285
 H         -4.0542488442        5.8147437037        0.3240080675
 H         -2.8940626454        3.7100938199       -0.1877002334
 H         -1.6825323324        1.9869771912        0.9466467802
 H         -0.7484045972        0.7406971079       -2.1006048699
 H          0.9127373272        1.2609710134       -3.8156111995
 H          3.3286026812        1.0488597560       -3.4078529102
