  56
  -93.2366336006000       0.333612333339074      !
 N          8.9812428984       -0.8910696848        0.7358501685
 C          7.8953158037       -0.5843657305        0.5132821545
 C          6.5784373088       -0.2083647640        0.2421152816
 N          5.5589630063       -0.7823651796        0.8393439814
 C          4.3328132820       -0.4724311627        0.6189907138
 C          4.0515980720        0.6295000802       -0.3932901829
 N          5.0587376166        1.1824568488       -0.9681495285
 C          6.3078180162        0.8501031723       -0.7358287603
 C          7.3689704593        1.4741776296       -1.3947608755
 N          8.2453263967        1.9850940041       -1.9377588007
 C          2.6428979642        0.7744706576       -0.4692005599
 C          1.7863054932        1.5994954463       -1.1897577944
 C          0.4174776677        1.4264895856       -1.0148862058
 C         -0.1434029473        0.4733534216       -0.1689603093
 C         -1.6008346107        0.3047879119       -0.1343418700
 C         -2.1565059715       -0.9611828053       -0.2973438594
 C         -3.5360340581       -1.1410373687       -0.2982667369
 C         -4.1075966168       -2.4844127662       -0.4752010164
 C         -3.5689404281       -3.3644762866       -1.4116643178
 C         -4.1068969446       -4.6263247558       -1.5809728772
 C         -5.1858912883       -5.0321136029       -0.8129609656
 C         -5.7270636839       -4.1661753744        0.1230146704
 C         -5.1953074456       -2.9010662250        0.2891153340
 C         -4.3609383479       -0.0334483507       -0.1326259180
 C         -3.8260647439        1.2413561127        0.0240942491
 C         -4.7117579827        2.4040441575        0.1868736513
 C         -5.8604554547        2.5329265003       -0.5911576536
 C         -6.6940208296        3.6247543545       -0.4379483655
 C         -6.3981727125        4.6006740225        0.4995752794
 C         -5.2601160818        4.4808813632        1.2800435372
 C         -4.4205030435        3.3941206831        1.1228423967
 C         -2.4434370595        1.4011084284        0.0193775452
 C          0.7107857577       -0.3538793805        0.6142766933
 C          0.3486551358       -1.3115325878        1.5866917661
 C          1.3155925057       -2.0386380284        2.2557986360
 C          2.6826280366       -1.8811114101        2.0289538854
 C          3.0759046946       -0.9269955776        1.0994786624
 C          2.0852031296       -0.1734587411        0.4229588154
 H          2.1672058789        2.3422966223       -1.8725718296
 H         -0.2535498363        2.0453484875       -1.5942458134
 H         -1.5061233598       -1.8124082459       -0.4357888954
 H         -2.7380724816       -3.0470409236       -2.0251754507
 H         -3.6838248601       -5.2957279361       -2.3155917694
 H         -5.6035263484       -6.0191516019       -0.9438142609
 H         -6.5661475372       -4.4790924695        0.7269175326
 H         -5.6102544379       -2.2357038607        1.0324960797
 H         -5.4330059030       -0.1638436396       -0.1306491259
 H         -6.0870393629        1.7821757095       -1.3344769902
 H         -7.5771914029        3.7161484146       -1.0530418090
 H         -7.0513056896        5.4518948364        0.6205777414
 H         -5.0264608801        5.2378514036        2.0142638559
 H         -3.5431495637        3.2966124457        1.7459598814
 H         -2.0175764326        2.3871226988        0.1353228164
 H         -0.6931148437       -1.4681192777        1.8222995018
 H          1.0002857105       -2.7641367881        2.9917356370
 H          3.4074489079       -2.4732695004        2.5645420062
  56
  -93.2366253006000       0.330695040550822      !
 N          8.9039505873        1.5134490994       -0.7406091316
 C          7.8402094660        1.1469169742       -0.5002125596
 C          6.5510350891        0.6985079464       -0.2065072468
 N          5.4888615076        1.2393219489       -0.7583805072
 C          4.2860310634        0.8597456813       -0.5194048403
 C          4.0865660113       -0.2865916433        0.4623766548
 N          5.1347981426       -0.8062322842        0.9931940425
 C          6.3593312399       -0.4045586555        0.7404994839
 C          7.4681848682       -1.0008874920        1.3442746973
 N          8.3807394117       -1.4942122357        1.8418104295
 C          2.6902317909       -0.5166776509        0.5539954387
 C          1.8961318096       -1.4152034131        1.2579592530
 C          0.5182407070       -1.3361537922        1.0876401266
 C         -0.1117528056       -0.4076000311        0.2629999822
 C         -1.5773480558       -0.3788226121        0.1935677225
 C         -2.2941880743       -1.5533330978       -0.0138451183
 C         -3.6841927502       -1.5393029815       -0.0773177728
 C         -4.4317903691       -2.7861409145       -0.2985592972
 C         -5.5947286259       -3.0527931228        0.4208665005
 C         -6.2947687544       -4.2266873802        0.2146376148
 C         -5.8490237752       -5.1489007471       -0.7177859551
 C         -4.6959155646       -4.8920372260       -1.4407387289
 C         -3.9899677378       -3.7223682222       -1.2309119246
 C         -4.3555822431       -0.3299519613        0.0718135916
 C         -3.6585926443        0.8536009500        0.2912386333
 C         -4.3762121245        2.1278655745        0.4474401894
 C         -3.9863190566        3.0483264222        1.4181155683
 C         -4.6619000440        4.2455308979        1.5624638761
 C         -5.7316019123        4.5460006244        0.7350507406
 C         -6.1253409996        3.6392477741       -0.2353236651
 C         -5.4560189834        2.4381276457       -0.3766902067
 C         -2.2689179568        0.8184992714        0.3543599959
 C          0.6787575977        0.5067408958       -0.4899425221
 C          0.2477613368        1.4648094722       -1.4335538804
 C          1.1589729035        2.2774330935       -2.0820976636
 C          2.5348846017        2.2054397775       -1.8666550964
 C          2.9970456041        1.2525369812       -0.9682354101
 C          2.0633267639        0.4184722635       -0.3052381076
 H          2.3308324436       -2.1471817970        1.9200531968
 H         -0.1051359237       -2.0189563544        1.6480950494
 H         -1.7623568520       -2.4866059368       -0.1288329649
 H         -5.9372419347       -2.3440145608        1.1604333755
 H         -7.1910079825       -4.4239432866        0.7830902271
 H         -6.3982687496       -6.0640854747       -0.8807702003
 H         -4.3462384598       -5.6059765369       -2.1722149344
 H         -3.0999052045       -3.5194770841       -1.8086857840
 H         -5.4341967991       -0.3106090954        0.0199057085
 H         -3.1632073690        2.8117817619        2.0771371434
 H         -4.3539719427        4.9468241877        2.3243114402
 H         -6.2561454639        5.4831783071        0.8460333762
 H         -6.9558803472        3.8705716579       -0.8862422775
 H         -5.7554756168        1.7421616954       -1.1473968882
 H         -1.7190053945        1.7297195444        0.5390366114
 H         -0.8027683542        1.5549018901       -1.6645276450
 H          0.7905780352        3.0017493223       -2.7941643468
 H          3.2151335271        2.8590091482       -2.3890799494
  56
  -93.2366108460000       0.325675289304526      !
 N          8.9080375854        1.5124253892       -0.6913936876
 C          7.8432927172        1.1444138780       -0.4572332096
 C          6.5520289140        0.6975823647       -0.1697417181
 N          5.4926317815        1.2397581079       -0.7256184821
 C          4.2885407645        0.8605382332       -0.4913750339
 C          4.0848064974       -0.2862494028        0.4883299127
 N          5.1304355196       -0.8067689094        1.0236360630
 C          6.3560712666       -0.4056251866        0.7757505408
 C          7.4620879536       -1.0021043929        1.3845135884
 N          8.3740448028       -1.4928167024        1.8854596157
 C          2.6883206044       -0.5177536030        0.5727428751
 C          1.8914048686       -1.4187681016        1.2702336333
 C          0.5142921797       -1.3410104559        1.0930203934
 C         -0.1118783900       -0.4108939059        0.2676333549
 C         -1.5768573200       -0.3809166455        0.1872754191
 C         -2.2928878545       -1.5529156775       -0.0349046026
 C         -3.6824925654       -1.5369245020       -0.1090083249
 C         -4.4289624702       -2.7790101875       -0.3577791243
 C         -5.6040127688       -3.0518817153        0.3395959323
 C         -6.3032438446       -4.2215145485        0.1086050756
 C         -5.8443958987       -5.1338631102       -0.8273253107
 C         -4.6792334809       -4.8710120214       -1.5288826270
 C         -3.9746165039       -3.7052842007       -1.2943566533
 C         -4.3539382745       -0.3292298580        0.0520023949
 C         -3.6578546202        0.8530160210        0.2840724998
 C         -4.3769614027        2.1241062526        0.4522520033
 C         -5.5639007769        2.1784394714        1.1803928584
 C         -6.2397280400        3.3737962036        1.3366710585
 C         -5.7450627566        4.5338264321        0.7636027686
 C         -4.5667954203        4.4917121372        0.0366257481
 C         -3.8863022439        3.2984512259       -0.1155496386
 C         -2.2679989928        0.8163149899        0.3501995117
 C          0.6817982551        0.5049885224       -0.4795864894
 C          0.2544054347        1.4625714972       -1.4250712230
 C          1.1675188662        2.2766458535       -2.0688208455
 C          2.5424578749        2.2063491622       -1.8460160307
 C          3.0015201029        1.2535699390       -0.9458545532
 C          2.0652869677        0.4182726986       -0.2880703154
 H          2.3234774485       -2.1518013108        1.9327869092
 H         -0.1114304945       -2.0257157140        1.6483961593
 H         -1.7607537959       -2.4854287650       -0.1537955601
 H         -5.9569746168       -2.3517262807        1.0829210872
 H         -7.2088778197       -4.4237909512        0.6614238792
 H         -6.3925568900       -6.0461173436       -1.0091929698
 H         -4.3193502545       -5.5771046846       -2.2627995438
 H         -3.0756427573       -3.4973180523       -1.8565419836
 H         -5.4293863057       -0.3032263210       -0.0432379750
 H         -5.9454222621        1.2808114737        1.6448900019
 H         -7.1553317287        3.4019056401        1.9089422869
 H         -6.2751350336        5.4667318307        0.8834951249
 H         -4.1779281585        5.3926369261       -0.4148655682
 H         -2.9763248627        3.2711092053       -0.6975041345
 H         -1.7195859390        1.7182968707        0.5794473990
 H         -0.7952228174        1.5468844665       -1.6627463517
 H          0.8027749021        3.0000665700       -2.7838438323
 H          3.2242906507        2.8608972613       -2.3651241852
  56
  -93.2333207302000       1.001733680557850E-002 !
 N          8.9580401193        0.3330413790       -1.2724141587
 C          7.8787530067        0.2998256766       -0.8751772988
 C          6.5698773987        0.2611297970       -0.3907976856
 N          5.5351644776        0.1990488897       -1.1969417258
 C          4.3156233571        0.1639826910       -0.7960043534
 C          4.0637038371        0.1952302728        0.7054816991
 N          5.0847798438        0.2561662973        1.4814474892
 C          6.3273420100        0.2911884736        1.0554891328
 C          7.4051506523        0.3549802979        1.9400615024
 N          8.2941793363        0.4056218362        2.6688013590
 C          2.6568926099        0.1448432766        0.8930968629
 C          1.8211755959        0.1357434002        2.0029329898
 C          0.4459182155        0.0710955367        1.7834016572
 C         -0.1278025964        0.0188456956        0.5213959419
 C         -1.5973330139       -0.0495694856        0.3710038339
 C         -2.2409575418       -1.2787738630        0.3902751939
 C         -3.6248858073       -1.3567810659        0.2493434061
 C         -4.3024591053       -2.6612029955        0.2622405583
 C         -5.5111986750       -2.8260837721        0.9359138340
 C         -6.1467334005       -4.0532555372        0.9502204913
 C         -5.5890123173       -5.1339993352        0.2870975481
 C         -4.3892311020       -4.9807883619       -0.3881410194
 C         -3.7487550424       -3.7560111299       -0.3985652457
 C         -4.3530913716       -0.1818746850        0.0964984135
 C         -3.7227077238        1.0576588896        0.0729139137
 C         -4.5065445314        2.2913986688       -0.0840255896
 C         -5.7145851889        2.4511982665        0.5921298916
 C         -6.4498842288        3.6131279451        0.4537335116
 C         -5.9943528491        4.6314056253       -0.3675828649
 C         -4.7965367909        4.4818772907       -1.0470643230
 C         -4.0558876792        3.3234915674       -0.9044684868
 C         -2.3371132579        1.1130817665        0.2061389168
 C          0.7008994942        0.0256347027       -0.6306553516
 C          0.3020431771       -0.0304971004       -1.9838427608
 C          1.2467527294       -0.0226343808       -2.9924148499
 C          2.6204565226        0.0401482789       -2.7521633998
 C          3.0463834139        0.0963890947       -1.4310661967
 C          2.0781432524        0.0877395633       -0.3976852946
 H          2.2188394096        0.1767832327        3.0045071956
 H         -0.2123933136        0.0626100600        2.6410070955
 H         -1.6605471531       -2.1785993469        0.5343355285
 H         -5.9412000263       -1.9913487988        1.4699685080
 H         -7.0794960190       -4.1684010647        1.4820124936
 H         -6.0872239505       -6.0918776016        0.2968303522
 H         -3.9523478823       -5.8194371294       -0.9103064505
 H         -2.8222897897       -3.6381384991       -0.9418173759
 H         -5.4223093026       -0.2350581075       -0.0471452106
 H         -6.0651566580        1.6675239861        1.2480456855
 H         -7.3806707273        3.7266643299        0.9899131863
 H         -6.5702047872        5.5381321637       -0.4771910405
 H         -4.4389224426        5.2713697906       -1.6916818074
 H         -3.1300105433        3.2061191799       -1.4489513203
 H         -1.8317577303        2.0680526904        0.2072564148
 H         -0.7494029846       -0.0817369817       -2.2255329022
 H          0.9109426408       -0.0680635875       -4.0184047835
 H          3.3259498513        0.0431972524       -3.5678222543
