97
 energy: -139.449395927833 gnorm: 0.000060302098 xtb: 6.7.1 (edcfbbe)
C           -1.28879507621855        4.22583786525252        3.03931647520105
C           -1.59181169103121        4.77441173114019        1.65000268576903
C           -3.09443115049392        4.92803244991023        1.42092511513455
C           -3.43900215526538        5.63666554317126        0.10989370087944
C           -3.08721811680166        4.86292512959902       -1.16287336926952
C           -4.02308314586081        3.68267985829447       -1.45260802188837
N           -3.76397951986593        2.52753019156368       -0.61620916150164
C           -2.47797802555711        1.97855488708459       -0.57341245627700
C           -1.60331618606660        2.11673338361161       -1.64349457608808
C           -0.21068726358910        1.60915045516530       -1.63256970387151
C            0.14798683711274        0.77449712878417       -0.43168063348574
C            1.38143823209165        0.12222170879615       -0.47428126937305
C            1.82358794692208       -0.93690773579702        0.48138752507310
C            1.11709281428460       -2.23437938526563        0.13150548032559
C           -0.22704349505123       -2.51859994133599        0.16848565765094
C           -0.67872580195379       -3.76444872625085       -0.27238201300815
C           -2.11694640266369       -4.07156781798687       -0.21225390643301
C           -2.53438236407159       -5.22973222020407        0.40334271486758
C           -3.89436465858264       -5.51982593980425        0.56603243272218
C           -4.84258897945232       -4.64307173569218        0.11861572899615
C           -4.46535622797092       -3.45639442294682       -0.54429467162648
C           -5.43189724416581       -2.55284770321298       -1.03497674068529
C           -5.06154485865990       -1.42096789546117       -1.70351974734951
C           -3.70363661129940       -1.15561976014101       -1.92948642027236
C           -2.74211575245190       -2.00903557936912       -1.46410359581713
C           -3.08662361241863       -3.16732537507283       -0.73385332717574
C            0.24536850180881       -4.70926974925526       -0.71979526713342
C            1.60166510885166       -4.43364712156177       -0.74234136515502
C            2.04320090804349       -3.18885105479495       -0.31867999016495
C            3.37601777257651       -2.62311501164129       -0.21399770050301
C            4.62267614485919       -3.16180676448058       -0.49214398022443
C            5.74714802553350       -2.38444465980752       -0.27782267721465
C            5.64743848580403       -1.07747731928251        0.19842425295131
C            6.87028035878541       -0.28997300411188        0.43911644176926
C            7.83977689842138       -0.79872579409460        1.27235441100963
C            8.99871152371138       -0.07136521681233        1.57037608095876
C            9.18928654457104        1.17016333021362        1.03148515712107
C            8.23584682143854        1.72267844450690        0.15090824200441
C            8.42635127117960        2.99195582813978       -0.43653845260958
C            7.51121445491419        3.50621652037670       -1.31114228565591
C            6.36913089912727        2.76417748177832       -1.64809389680082
C            6.15227110040840        1.53426629247695       -1.09120775407109
C            7.06217603379014        0.98488752174089       -0.16225922324053
C            4.38898380048729       -0.53952841339033        0.48075637216483
C            3.26787546701182       -1.31162665687784        0.27817673942892
C           -0.74680396229095        0.69030525634163        0.61101372077161
C           -2.05601839594568        1.25501254964841        0.54095335073762
S           -3.11796798340690        0.98928546562143        1.90889614936407
C           -4.67941767888167        1.03410928927717        1.06584451912722
C           -5.73380296026298        0.32423943428019        1.60920139193998
C           -6.98655100871716        0.37893402163867        1.02111486910369
C           -7.15733440152896        1.12471228863298       -0.12987048147181
C           -6.09339978074187        1.81272164467165       -0.68921091956877
C           -4.83171726230252        1.80470776945227       -0.09171655564272
H           -1.76219015352607        3.25577172864855        3.17490932312779
H           -0.21623565362634        4.10555707782446        3.17774166406904
H           -1.66230813601039        4.89918685764880        3.80860330575890
H           -1.10708282025714        5.74723397158450        1.53085279228511
H           -1.16980011007781        4.09607535701211        0.90644845647099
H           -3.56737104611915        3.94642272566406        1.45338925868313
H           -3.51173633387937        5.51569403715711        2.24350789472371
H           -2.90643181941064        6.59130668657572        0.08683424492212
H           -4.50925422765326        5.86090175259916        0.10157451627158
H           -2.05540443157939        4.51815008152946       -1.11210538549244
H           -3.16676717207258        5.54878287045915       -2.00957177417576
H           -3.96035996585544        3.41851566564914       -2.51747246277274
H           -5.04335314499352        4.01103814751720       -1.24840992489228
H           -1.92841375054924        2.58968718414466       -2.55508106913917
H           -0.02355351578621        1.03410388019655       -2.55175018782713
H            0.49797157148333        2.45423761923348       -1.68176195027142
H            2.00670350325095        0.26911326434205       -1.34220710368211
H            1.61529317285571       -0.64134425803679        1.51557767525789
H           -0.93728249773956       -1.79826908471877        0.54271826707582
H           -1.79721069807023       -5.91419254743945        0.79901267624995
H           -4.18415241959275       -6.43420225665113        1.06376312564639
H           -5.89458356893517       -4.84666488619125        0.26033076172763
H           -6.47695080406635       -2.77883449334756       -0.87618577350723
H           -5.80895107826148       -0.73369903932614       -2.07107130614696
H           -3.41818623999087       -0.27200121490045       -2.48187992963717
H           -1.70189739940687       -1.80402449356671       -1.66702300349737
H           -0.11192779307017       -5.66801235701617       -1.06803990688989
H            2.30321323197187       -5.17780795194600       -1.09028618882069
H            4.71859796849750       -4.16956962104827       -0.86883395400248
H            6.72656023373857       -2.78617562945171       -0.49632854481938
H            7.69217790959172       -1.76924954919010        1.72523250898899
H            9.73361303147030       -0.49793331466819        2.23808848161202
H           10.07475874122444        1.74410199301161        1.26577342909791
H            9.31895866463511        3.54768547143811       -0.18462636944672
H            7.66572478582099        4.47853645210453       -1.75669132430008
H            5.66287717892679        3.17028791042704       -2.35822568572692
H            5.28046593721470        0.96108981744557       -1.36901990447793
H            4.30605445435756        0.46466693151660        0.87203161325499
H           -0.48189207422825        0.19156022442766        1.53030775998232
H           -5.56809810439781       -0.25282716967600        2.50679375032192
H           -7.81287820231031       -0.15872715885869        1.45942831174577
H           -8.12391847756282        1.16882373963199       -0.60997080132261
H           -6.25128282921973        2.35443481085636       -1.60852660260391
