97
 energy: -139.518982895122 gnorm: 0.000051385682 xtb: 6.7.1 (edcfbbe)
C           -8.39319228558925        2.79900737030870       -2.29588461196214
C           -7.37870957470879        2.01014409272111       -1.47532922447777
C           -6.57023211183991        2.92044080142616       -0.55161685577024
C           -5.49068726300531        2.17841434240518        0.23714023730300
C           -6.06117650888906        1.29174530236588        1.34303639074095
C           -4.95647462499823        0.52144785742305        2.07433586431033
N           -4.23163489983239       -0.34645016874877        1.16687060948107
C           -2.83441130332629       -0.36294689973575        1.20107804412197
C           -2.13286446186247       -0.10045068818213        2.31675961635728
C           -0.64186021543287       -0.03727664950783        2.37779193019636
C            0.06711894156479       -0.24233615781103        1.05947413498771
C            1.40404193278213       -0.11687990273115        1.01083889388499
C            2.30215230111852       -0.28888213037742       -0.17584358401456
C            3.24061249740084        0.88275608036884       -0.33826651620925
C            2.92948156093856        2.20601618070063       -0.55561904882250
C            3.96236308296690        3.13930579514178       -0.65922793070880
C            3.65168816335185        4.55632889970860       -0.92427811321675
C            2.91675688367965        4.88285926555340       -2.04007636506039
C            2.64771405749120        6.21752406715999       -2.36927128334825
C            3.11552147288408        7.22892325155345       -1.57817524459783
C            3.84735471816827        6.94189384926978       -0.40679575930556
C            4.31608042131747        7.97049798109405        0.43848739054739
C            4.99755288738103        7.68051933049121        1.58662686663163
C            5.22955068705102        6.34425861335306        1.94667385040299
C            4.79656801046102        5.32493864266387        1.14475845971759
C            4.11344609168158        5.58905049210912       -0.06217881634960
C            5.28846952640098        2.71684275036070       -0.55811640144127
C            5.60545589778830        1.38726859718073       -0.34391411903818
C            4.57614170894356        0.46593118866072       -0.22712272252650
C            4.59427431416587       -0.96809908145444        0.00036492481852
C            5.64538376222601       -1.85347046806041        0.18068108419503
C            5.36066132101846       -3.19232870078559        0.38332175273676
C            4.04753986238260       -3.66175221252193        0.39937650307841
C            3.78572463105322       -5.09353396999100        0.63634582886526
C            4.27896367927370       -5.68488001737505        1.77609541145217
C            4.02487732336027       -7.03129357520179        2.06644822823055
C            3.27663660690311       -7.78989517603635        1.21078488929412
C            2.77212282906920       -7.23477762024130        0.01608099550799
C            2.02168953055416       -8.00926789707153       -0.89465235931326
C            1.56330407485480       -7.47096870400457       -2.06369508711344
C            1.84896746961798       -6.13407710576423       -2.38002135336867
C            2.56752203409470       -5.35519233445838       -1.51595982325335
C            3.03348904303175       -5.87105318187278       -0.28717107131140
C            2.99065307482605       -2.76497307688101        0.22571370443092
C            3.26983289155565       -1.43227996756165        0.02542448767886
C           -0.75094285096711       -0.57600698050490       -0.07306666369295
C           -2.09682079789976       -0.64420223718393       -0.01681488908782
S           -2.97712643386394       -0.99027356642545       -1.50613828850020
C           -4.45562583343255       -1.69606939100694       -0.83535771381918
C           -5.15313565260566       -2.61183879056358       -1.60584678026384
C           -6.34440400394092       -3.14193130264978       -1.14659121063763
C           -6.82027351189435       -2.75965459708192        0.09722721313883
C           -6.12066684647816       -1.85229242691270        0.86937174147009
C           -4.92602957615952       -1.28564879369989        0.41611113607980
H           -9.09423034439330        3.31466993399434       -1.64240074288780
H           -7.89151839898818        3.54191786751267       -2.91296319186115
H           -8.95661284631655        2.13509495293871       -2.94818793460957
H           -7.90667034363605        1.25600637044371       -0.88857245814022
H           -6.69651435748372        1.48541054361514       -2.14921127561755
H           -6.08975751468870        3.69075878983729       -1.16029704619103
H           -7.24584556182125        3.42416000094974        0.14411660750749
H           -4.81171301359215        2.90864699113027        0.68571784219942
H           -4.90605070115018        1.56660890086204       -0.45326161872801
H           -6.77792580817399        0.59197335358539        0.91535506573375
H           -6.58623388395066        1.91027516306868        2.07374827403892
H           -5.37647466063175       -0.03538685225411        2.92179485545003
H           -4.24029965274232        1.24464551159707        2.46789610266439
H           -2.63437470070669        0.08120386548516        3.25515307906879
H           -0.34710569143118        0.92973014039215        2.80308552956841
H           -0.29720031026609       -0.79622172732383        3.09236850997455
H            1.93273670706972        0.12918602813808        1.92361219722329
H            1.71700904159651       -0.43758190773571       -1.08673185948880
H            1.90050143748006        2.52842288559515       -0.63130093850108
H            2.56163159810439        4.09497457833834       -2.68956024663487
H            2.07752178790421        6.43728635043802       -3.26059335775554
H            2.92631834423332        8.26219425801272       -1.83277266642855
H            4.11712765904640        8.99642088596195        0.16121837875845
H            5.35218607955588        8.47435882395194        2.22834537076374
H            5.75038037637101        6.12564827787695        2.86802604896402
H            4.96536775392599        4.29865696612498        1.43579003822113
H            6.07909137491229        3.44603781039920       -0.66649878203025
H            6.63748079762483        1.07656725395233       -0.27240021675970
H            6.66888597083109       -1.50865559091516        0.16402289338126
H            6.16820844189926       -3.89824173634828        0.51715996169843
H            4.85507182892559       -5.09245582510347        2.47313646314832
H            4.41972078245646       -7.45913174144013        2.97685119743414
H            3.06594313377326       -8.82678087296265        1.43176756879443
H            1.82240441556324       -9.04342150061799       -0.64996639139903
H            0.99006104651317       -8.07110109267181       -2.75573840585377
H            1.50008789719804       -5.72447466515790       -3.31724949536423
H            2.79802412662991       -4.33237191550853       -1.77488336113397
H            1.96953656178163       -3.11733574174354        0.26490389722624
H           -0.27247435271633       -0.76891979131676       -1.02141675568458
H           -4.75863260907713       -2.88881202729906       -2.57226468620389
H           -6.89189151233690       -3.84698642192447       -1.75283499035279
H           -7.74344054189941       -3.17467952269972        0.47415660919181
H           -6.50377189202554       -1.58342655085764        1.84069057806502
