  97
       -139.47277925
 C          0.2416533117       -4.5568831959       -1.4316058699
 C          0.6806975085       -5.8521596650       -0.7583310731
 C          2.1581601158       -6.1813139426       -0.9846440614
 C          3.1319574410       -5.0988120916       -0.5201287871
 C          3.0517185275       -4.8301726510        0.9803774534
 C          3.9897532639       -3.6923428687        1.3991304468
 N          3.7238753465       -2.4807622905        0.6510059776
 C          2.4260335806       -1.9731395437        0.6197695842
 C          1.5469211549       -2.1720622148        1.6180189921
 C          0.1089441640       -1.7646512295        1.5568895099
 C         -0.2182764045       -0.8055690443        0.4416279024
 C         -1.3255870599       -0.0507101204        0.4948364808
 C         -1.7312428159        0.9918943874       -0.5107261385
 C         -3.1533210369        1.4391722807       -0.3094109964
 C         -4.3071379515        0.7068741953       -0.4623188225
 C         -5.5379863648        1.3111585124       -0.1945378181
 C         -6.7906832893        0.5650202571       -0.3978832312
 C         -7.7665384822        1.1049236109       -1.2034267163
 C         -8.9480653441        0.4080847831       -1.4830086292
 C         -9.1527012953       -0.8366576478       -0.9578322226
 C         -8.1929908829       -1.4205113877       -0.1053466480
 C         -8.3959517576       -2.6954266806        0.4644178176
 C         -7.4749736342       -3.2403211313        1.3131736665
 C         -6.3169920189       -2.5217396117        1.6455337998
 C         -6.0872658908       -1.2873209933        1.1048771266
 C         -7.0000545680       -0.7102234117        0.1961896581
 C         -5.5753868341        2.6422908650        0.2186742025
 C         -4.4165999435        3.3821702252        0.3763960857
 C         -3.1980908291        2.7788557894        0.1095149997
 C         -1.8397160170        3.2912491879        0.1581222970
 C         -1.3354228705        4.5364966566        0.5013724481
 C          0.0327138647        4.7434304179        0.4504870427
 C          0.9030380438        3.7299583861        0.0515214083
 C          2.3550808586        3.9509053410       -0.0273123578
 C          2.8378237337        5.0496315783       -0.6997784077
 C          4.2121066204        5.2492625330       -0.8771424166
 C          5.1072525098        4.3428475450       -0.3831799278
 C          4.6623451951        3.2189276952        0.3435878785
 C          5.5759129863        2.2976463750        0.8974390455
 C          5.1416096465        1.2371231496        1.6393945264
 C          3.7697525228        1.0539116217        1.8611657364
 C          2.8576579959        1.9234315826        1.3314613004
 C          3.2698011905        3.0188122081        0.5417661095
 C          0.3877464156        2.4851224005       -0.3145320135
 C         -0.9667397505        2.2696350544       -0.2451508693
 C          0.7224540833       -0.7439711890       -0.6436666625
 C          1.9673497000       -1.2506487334       -0.5537647551
 S          3.0422001227       -1.0774416159       -1.9427507899
 C          4.6008885807       -1.0608763241       -1.1093461028
 C          5.6462750875       -0.3691774611       -1.6952090921
 C          6.9079677919       -0.4096839812       -1.1321451506
 C          7.1077122390       -1.1393053208        0.0272083693
 C          6.0578630481       -1.8094699957        0.6258692937
 C          4.7763216560       -1.7938916273        0.0685636452
 H          0.4973232325       -4.5733425308       -2.4885817223
 H         -0.8359282346       -4.4331687242       -1.3439824164
 H          0.7179656718       -3.6966632418       -0.9743942903
 H          0.4734886883       -5.7921222685        0.3109013953
 H          0.0875037339       -6.6795221465       -1.1548996555
 H          2.3883630503       -7.1164891006       -0.4681320696
 H          2.3163864483       -6.3470177555       -2.0525864681
 H          2.9259451188       -4.1794044920       -1.0642446232
 H          4.1477538058       -5.4116409582       -0.7753750283
 H          3.3349248964       -5.7270326615        1.5349168726
 H          2.0289790154       -4.5759948967        1.2437361938
 H          5.0099193840       -3.9982840291        1.1685305753
 H          3.9172783520       -3.5246483081        2.4816787736
 H          1.8355981179       -2.6976408478        2.5140134177
 H         -0.4979498605       -2.6735786695        1.4300284384
 H         -0.1864098144       -1.3334205953        2.5173392727
 H         -1.9639433735       -0.1181239823        1.3650229175
 H         -1.5629907212        0.6300169314       -1.5280193998
 H         -4.2709231553       -0.3162348215       -0.8073353047
 H         -7.6050602935        2.0748395660       -1.6519527176
 H         -9.6879885732        0.8598770318       -2.1272426448
 H        -10.0535146768       -1.3897734655       -1.1819632330
 H         -9.3023259088       -3.2308206348        0.2192073926
 H         -7.6370935591       -4.2176289585        1.7437720094
 H         -5.6077977223       -2.9501523991        2.3392470469
 H         -5.2044095822       -0.7320809152        1.3820624600
 H         -6.5332701658        3.0950942288        0.4308568023
 H         -4.4650592669        4.4114678130        0.6996456117
 H         -1.9958767972        5.3323649717        0.8125619932
 H          0.4403788687        5.7011429661        0.7405917767
 H          2.1413109185        5.7566696638       -1.1272036724
 H          4.5543525726        6.1178349036       -1.4205128078
 H          6.1690317398        4.4768322116       -0.5325145464
 H          6.6321810684        2.4549108209        0.7324415636
 H          5.8491066067        0.5429681594        2.0661695401
 H          3.4343169749        0.2213777986        2.4626822005
 H          1.8075219139        1.7823576173        1.5326324639
 H          1.0590649416        1.7147104217       -0.6551475103
 H          0.4294567782       -0.2422936553       -1.5519686223
 H          5.4626135742        0.1829590593       -2.6042405305
 H          7.7242566630        0.1216265440       -1.5953112112
 H          8.0871422715       -1.1782432074        0.4804780088
 H          6.2334685168       -2.3402246584        1.5487604992
