97
 energy: -139.521408310440 gnorm: 0.000037276434 xtb: 6.7.1 (edcfbbe)
C            0.41606382238275       -4.90814810858743       -1.71483448151250
C            0.87714029106468       -6.14209342959188       -0.94658409056122
C            2.38789557935698       -6.37794559578405       -1.02251530163453
C            3.24810624173174       -5.22371447578456       -0.50624685373108
C            3.02408339829831       -4.91669631233877        0.97292434123071
C            3.90128383950510       -3.75132435588749        1.44493847736098
N            3.64718678399779       -2.54988746431484        0.67232145080831
C            2.34773347377388       -2.04199901854824        0.61092014947199
C            1.44627383749896       -2.23093202970054        1.59070789338552
C            0.02239370449353       -1.78185801925036        1.51167003453731
C           -0.25964680225695       -0.79979431502319        0.40371983865531
C           -1.34117040669071       -0.00764566203205        0.45738975525834
C           -1.72689958991367        1.04481866628665       -0.54576005907214
C           -3.15290406359143        1.49532618079209       -0.36874512398131
C           -4.30645239112705        0.75760715010968       -0.50716691773524
C           -5.53948181576299        1.36905442750645       -0.26671063889370
C           -6.79386676287205        0.61251777109832       -0.43531542585241
C           -7.75108054268808        1.08605532040210       -1.30232223978969
C           -8.93667843163249        0.37786229052087       -1.53556446497344
C           -9.16590675516007       -0.80891956518136       -0.89788355741463
C           -8.22605463912907       -1.32131722022766        0.02075309075927
C           -8.45533269516758       -2.53240917872230        0.70862158304424
C           -7.55319770825870       -3.00499323897679        1.61931186692244
C           -6.38626145539079       -2.27583914044135        1.89396086200587
C           -6.13111559795543       -1.10323283717241        1.23871761646258
C           -7.02659309946571       -0.60088092777968        0.26987859484324
C           -5.58188353937318        2.71389505033198        0.09923746921578
C           -4.42427608841899        3.45788635546964        0.24771827009104
C           -3.20293852925559        2.84521808168497        0.01579400568126
C           -1.84453470357865        3.35555632477996        0.08410595887936
C           -1.34616018703580        4.60569457513981        0.41858383583596
C            0.02300870569461        4.80857253169838        0.39805855818403
C            0.90304567476211        3.78670195518165        0.04116800309923
C            2.35547420979468        4.02114754002258       -0.01080772665771
C            2.83607224397750        5.11458495138088       -0.69472051163716
C            4.21056999475798        5.33684501360710       -0.84263996086871
C            5.11001326720421        4.45570706951707       -0.31161312797888
C            4.66743863108421        3.33436031484072        0.42107599670532
C            5.58378986415353        2.43078937945482        1.00019379923231
C            5.15099032483600        1.36593737365136        1.73737944848875
C            3.77819971117651        1.17177209067668        1.94576313358116
C            2.86437515490204        2.02827224788411        1.39746877494479
C            3.27369336569787        3.11608363690875        0.59553363694609
C            0.39342644825848        2.53469083671389       -0.31070204825882
C           -0.96424689800042        2.32358310941803       -0.27533292154325
C            0.69235637222034       -0.76890747390150       -0.67479418920315
C            1.91817939288074       -1.31908927710229       -0.57386708973103
S            3.00518919207358       -1.21193063443870       -1.96180962331952
C            4.55537364393090       -1.17557829701418       -1.10988195449678
C            5.61254500590680       -0.50399210200506       -1.69947910316059
C            6.86020024208105       -0.51415285695608       -1.10455610610347
C            7.03239470875669       -1.18594649571527        0.09409130308955
C            5.97231308267964       -1.83985698641958        0.69232829067862
C            4.70794872174851       -1.86461463707878        0.09734110256576
H            0.76535830463555       -4.94624812765472       -2.74488691084728
H           -0.67089413984760       -4.85400955605613       -1.72408106372569
H            0.79306492176889       -3.99623344862274       -1.25879323422981
H            0.56633691608956       -6.05734158443330        0.09645273588938
H            0.37876929027934       -7.02301750124820       -1.36031382180480
H            2.62702958101244       -7.28116215021338       -0.45463028364674
H            2.65836533587113       -6.56384009895736       -2.06530985614194
H            3.04292014384088       -4.33039573810400       -1.09729928787972
H            4.29982909493482       -5.48078739008379       -0.66183500320663
H            3.27112245229196       -5.79403589487532        1.57412724462046
H            1.97577683995092       -4.67508856100700        1.13911080088284
H            4.94363039029692       -4.02884209793384        1.28514984881656
H            3.75467804063255       -3.57652106851809        2.51832061874508
H            1.70670128134604       -2.76950290116909        2.48798375332594
H           -0.61112977201968       -2.66995090931402        1.36569660253640
H           -0.27367714714356       -1.35428853319118        2.47400158880958
H           -1.98172119992767       -0.06016312240659        1.32775715020294
H           -1.54662507069114        0.68778917306846       -1.56479706253666
H           -4.26751263697817       -0.27806608567677       -0.81445218725407
H           -7.57382851648620        2.01078546765451       -1.83350007750598
H           -9.66126800235400        0.77515474511222       -2.23192965802216
H          -10.07154400526959       -1.36939320964833       -1.08258804902033
H           -9.36659629400800       -3.07697556040339        0.50352832181151
H           -7.73689279974016       -3.93309126658472        2.14147494214585
H           -5.69089557103778       -2.64640953781525        2.63359719109555
H           -5.23981642739033       -0.53861811726754        1.46810772624883
H           -6.54244870481910        3.17361038656792        0.28494693950742
H           -4.47591154327824        4.49632348817747        0.54048217989959
H           -2.01198098821012        5.40926064507191        0.69772225311495
H            0.42484907010396        5.77165076363364        0.67943781809357
H            2.13818292524886        5.80005891189119       -1.15461660257376
H            4.54991903649039        6.20211994778168       -1.39398041662264
H            6.17272007700392        4.60637059643046       -0.43905947386050
H            6.64074264221232        2.60353121160597        0.85382180906301
H            5.85983245630044        0.67875823396017        2.17437207719726
H            3.44385960448739        0.34220166995091        2.55193312707625
H            1.81231247280820        1.88234263997749        1.59079460745098
H            1.06860732602356        1.75058179634271       -0.61620456282544
H            0.42659360930314       -0.25745477242049       -1.58786718851906
H            5.44860838730753        0.00942514612742       -2.63540682974442
H            7.68561473846139        0.00075184478284       -1.57123910499696
H            7.99875416341487       -1.19252852320760        0.57674583158817
H            6.12526832957480       -2.32851427430516        1.64233094172759
