  59
        -91.10642638
 O         -4.4575383010       -0.4121701592       -1.7017696962
 P         -3.3845761321       -0.2542057201       -0.7134510741
 C         -2.2575707435       -1.6869276077       -0.6229536141
 C         -1.5213703896       -2.0183857776        0.5068065829
 C         -0.6294809997       -3.0748010882        0.4586688806
 C         -0.4755164041       -3.8031023686       -0.7102806107
 C         -1.2183651245       -3.4810807437       -1.8345758299
 C         -2.1064178550       -2.4214928499       -1.7907058517
 C         -3.9962755527        0.0140993441        0.9819186865
 C         -5.2523296837       -0.5003612742        1.2718719911
 C         -5.7902454654       -0.3444911182        2.5363098342
 C         -5.0723018259        0.3285864776        3.5117904521
 C         -3.8216350262        0.8493408338        3.2210180735
 C         -3.2799867823        0.6949812518        1.9571606658
 C         -2.2620493813        1.1345033069       -1.0799836306
 C         -2.7538148737        2.1836564418       -1.8489658243
 C         -1.9152635264        3.2409385721       -2.1697455326
 C         -0.5973636562        3.2390393715       -1.7616472115
 C         -0.0718815328        2.1684363453       -1.0176958686
 C          1.3105833807        2.1296803774       -0.6041661269
 C          1.9513526361        3.3018204758       -0.1703058535
 C          3.1746235625        3.2740063686        0.4337685143
 C          3.8708776155        2.0369647083        0.6342657044
 C          5.0961536485        1.9805912878        1.2910263138
 C          5.7633307280        0.7727183441        1.4594498590
 C          5.2377107690       -0.4128080762        0.9382114855
 C          5.9110154115       -1.6589607059        1.0711322098
 C          5.3745893933       -2.8141205146        0.5343414867
 C          4.1820138277       -2.7848867769       -0.1567756396
 C          3.4696927148       -1.5619266382       -0.3235713513
 C          2.2844386339       -1.4848477233       -1.0537325141
 C          1.5965332970       -0.2815074691       -1.1798070738
 C          2.0425744320        0.8784858052       -0.5484038663
 C          3.2956160854        0.8456713795        0.1191430165
 C          3.9985234797       -0.3745909804        0.2464148095
 C         -0.9466393275        1.1308567193       -0.6618436397
 H         -1.6533615680       -1.4589587188        1.4226157884
 H         -0.0514557025       -3.3310650646        1.3346450468
 H          0.2199563370       -4.6293994802       -0.7403534724
 H         -1.1029456846       -4.0534781689       -2.7436115961
 H         -2.7010025147       -2.1520454156       -2.6521004636
 H         -5.7955877472       -1.0099892157        0.4893320304
 H         -6.7691575817       -0.7427283355        2.7615515944
 H         -5.4905178944        0.4543780451        4.4998278909
 H         -3.2686565121        1.3819090468        3.9810038587
 H         -2.3101799094        1.1128089406        1.7253564698
 H         -3.7790773783        2.1512527555       -2.1860233380
 H         -2.2910569575        4.0638875602       -2.7603969162
 H          0.0557664723        4.0455960421       -2.0601614916
 H          1.4217841069        4.2403041415       -0.2528905786
 H          3.6284738858        4.1822705599        0.8010393106
 H          5.5318024926        2.8921120551        1.6743141711
 H          6.7042507447        0.7458818601        1.9893114679
 H          6.8547056165       -1.6840921263        1.5948709962
 H          5.9026963885       -3.7499830710        0.6502264002
 H          3.7706173460       -3.6849268499       -0.5880876437
 H          1.8916089226       -2.3714379677       -1.5291243978
 H          0.7104998216       -0.2552195819       -1.7960286779
 H         -0.5853508142        0.3319338787       -0.0308163661
