59
 energy: -91.181773222374 gnorm: 0.000026862792 xtb: 6.7.1 (edcfbbe)
O           -4.50168068339022       -0.47781071893438        1.70093021085754
P           -3.44175427587551       -0.27271419200147        0.70739626936194
C           -4.07271498504045        0.11408904568023       -0.95778853951116
C           -5.32850395728781       -0.39000557732331       -1.26771695588483
C           -5.88133987528502       -0.15730555100407       -2.51379022212407
C           -5.17869145823385        0.58239832301739       -3.45133220632688
C           -3.92901032102905        1.09373977883037       -3.13985636154703
C           -3.37245898418952        0.86229858091103       -1.89430020660470
C           -2.33290051872032       -1.70888353063178        0.50574730273396
C           -2.10465927700862       -2.46719674888299        1.64564803336604
C           -1.20769095951191       -3.51935935293426        1.61129296502490
C           -0.53342024750233       -3.81054769707796        0.43641805258880
C           -0.76588404676159       -3.05960508012342       -0.70448191050770
C           -1.66552823446335       -2.00891194353172       -0.67384016524518
C           -2.27148936318266        1.04978952001614        1.15590492467442
C           -2.66513075273377        1.98398470435461        2.10311031898531
C           -1.76883775926271        2.95190504496931        2.52258172108303
C           -0.47768848446346        2.96838975812824        2.02422002827649
C           -0.06578400696612        2.02137980293486        1.08845320295469
C            1.30635584082122        2.00994830538894        0.55939665471766
C            1.85057308254473        3.19174813146734        0.06446439194610
C            3.10065888037936        3.21990310796149       -0.51636017578157
C            3.85645593398462        2.05250302520135       -0.63446458539727
C            5.13460128572495        2.04136040518048       -1.26490116431997
C            5.85169664089989        0.90005367313830       -1.37861898185658
C            5.35755255291596       -0.33472705126261       -0.86470922154925
C            6.07872876007674       -1.52466979280505       -0.97503612189608
C            5.57584936415424       -2.70663352859107       -0.46288960164973
C            4.34899396839040       -2.73019723911328        0.17405722064309
C            3.59329526293408       -1.56437750191443        0.30671262162817
C            2.34096002841611       -1.54184810470587        0.98484079947770
C            1.61505011056039       -0.40494246266366        1.08874526364057
C            2.06035909917871        0.82163440611382        0.50857911461291
C            3.33561475882927        0.84208928658102       -0.11283621687105
C            4.09407628305119       -0.34991196280685       -0.22274437226965
C           -0.98504997431730        1.07728458423273        0.64245771633933
H           -5.86060587572527       -0.95266561212789       -0.51398302725145
H           -6.85844347857938       -0.54945597969765       -2.75491682723394
H           -5.60754778989071        0.76678189273515       -4.42545940319296
H           -3.38683485905482        1.67733350666526       -3.86993579280933
H           -2.40331616590528        1.27189402159912       -1.64740355516788
H           -2.64628987032712       -2.22110875287166        2.54820300747637
H           -1.03109277725228       -4.10942500613570        2.49890972849274
H            0.17095482982883       -4.62916768605822        0.40580148783045
H           -0.24210713906469       -3.29245005987314       -1.62023686482556
H           -1.85658489673276       -1.42876295737948       -1.56614519581642
H           -3.66659750232276        1.92969790909641        2.50428510780739
H           -2.07091830555543        3.68666584149944        3.25459937531757
H            0.23044567360664        3.70221934961753        2.38143814607273
H            1.26258933175130        4.09734405691616        0.11542275635836
H            3.49807241577855        4.14820505832882       -0.90123155030498
H            5.51592558023537        2.97497617717067       -1.65412629896369
H            6.81886360162664        0.90012018181290       -1.86122954850964
H            7.04024742480815       -1.51323911790069       -1.46823538151626
H            6.14830176343146       -3.61805643009415       -0.55822102649288
H            3.96406597850889       -3.65524448795746        0.57898845237310
H            1.98200388201917       -2.45918924204441        1.42951061449327
H            0.68527196747601       -0.41425642528956        1.63782891292334
H           -0.68456435546803        0.35589477435775       -0.10422916688193
