59
 energy: -91.111571382725 gnorm: 0.000032272529 xtb: 6.7.1 (edcfbbe)
O           -4.44355357418939       -0.52643488776895        1.70772874694525
P           -3.38497024774545       -0.29996568511944        0.71722196610138
C           -4.01836180360833        0.07955163389257       -0.94842559931179
C           -5.27670739798830       -0.41756338907104       -1.25806030540383
C           -5.82673412103583       -0.18393490024171       -2.50528484541407
C           -5.11844225327346        0.54940823223090       -3.44352985832449
C           -3.86569171371930        1.05363717513421       -3.13223607239590
C           -3.31215354698041        0.82149685585375       -1.88562125230999
C           -2.25513906670934       -1.71903457582746        0.51369456895730
C           -2.05602511144139       -2.50917627592678        1.63717897182548
C           -1.15918592635820       -3.56138197539999        1.59578288578142
C           -0.45613141901194       -3.82094666705119        0.43040505676059
C           -0.65824276348761       -3.03714541742163       -0.69423854334241
C           -1.55804364423576       -1.98697297921086       -0.65677974182487
C           -2.25569968159908        1.06033669595094        1.16075069590050
C           -2.73138921405579        2.05486489367355        2.00709550743408
C           -1.88435815586753        3.08321961028605        2.39021007142257
C           -0.57109589872532        3.10386153122658        1.96441586906158
C           -0.06454531678369        2.08820281893347        1.13968151320305
C            1.31605641534672        2.07499131870930        0.70240691698443
C            1.94115665566085        3.26737044246941        0.31060584272278
C            3.16525305544565        3.27569131515396       -0.29571034306013
C            3.87308702084565        2.05324007676769       -0.54457673434788
C            5.09791509183500        2.03463424296715       -1.20143140598269
C            5.77586945335624        0.83858864913897       -1.41987152255061
C            5.25836121168289       -0.37021558924184       -0.95304755274697
C            5.94155588672061       -1.60698622576845       -1.14103856207565
C            5.41303135466958       -2.78789811291172       -0.65601358437740
C            4.21894576338897       -2.79783774839259        0.03366951936485
C            3.49609574811617       -1.58710637933352        0.25315852684725
C            2.30914940716194       -1.55233731312847        0.98025247165020
C            1.61119658154271       -0.35956460744838        1.15924487538409
C            2.05356651728746        0.83069079233225        0.58782143865764
C            3.30709871645330        0.83668716691537       -0.08053865275834
C            4.01803326814554       -0.37181049104381       -0.26196126899335
C           -0.94524224737741        1.08161571423756        0.72437066492975
H           -5.81264483945438       -0.97541411120711       -0.50347820453796
H           -6.80614352543395       -0.57018090380239       -2.74663494122498
H           -5.54539394794293        0.73467801697694       -4.41833376221988
H           -3.31944972322326        1.63232506700405       -3.86318497031546
H           -2.34083212414031        1.22549683902720       -1.63672416649021
H           -2.62065474248647       -2.28827307094360        2.53201987662361
H           -1.00574695318998       -4.17671130244635        2.47049765315381
H            0.24688604060668       -4.64060964895987        0.39396521679724
H           -0.11108153341379       -3.24443957792254       -1.60244273064353
H           -1.72652137066774       -1.38267467171867       -1.53736817265244
H           -3.75228427752817        2.00268060234837        2.35519313167818
H           -2.24809459627723        3.86502220430613        3.04119402976641
H            0.09065232110779        3.88577448819492        2.30684234200865
H            1.40233202011513        4.19642941374205        0.43242741319219
H            3.61027948353566        4.20202557066459       -0.62678401921099
H            5.52710241277279        2.96442646966130       -1.54610298105634
H            6.71832290601799        0.84291885968081       -1.94773952839792
H            6.88486018803087       -1.60173979592309       -1.66605680781431
H            5.94749671617470       -3.71420264352854       -0.81260766402374
H            3.81293806638447       -3.71892074458303        0.42371278678430
H            1.92002839005548       -2.46234042833676        1.41257450857038
H            0.72023693481483       -0.36977812665696        1.76871861016502
H           -0.59454098132778        0.32464051064857        0.03788260744911
