  59
        -91.18170115
 O         -4.5330940754       -0.4414521734        1.6929187736
 P         -3.4534676899       -0.2464215195        0.7186310257
 C         -4.0481221214        0.1326367251       -0.9623199393
 C         -5.2060055226       -0.5244791014       -1.3571107903
 C         -5.7279137661       -0.3122094958       -2.6197316114
 C         -5.0936614623        0.5616501117       -3.4885391769
 C         -3.9434223212        1.2243719610       -3.0923086551
 C         -3.4164057263        1.0117698655       -1.8302003829
 C         -2.3561827759       -1.6926922299        0.5309849061
 C         -2.1404785751       -2.4534499756        1.6715681917
 C         -1.2513797119       -3.5123556084        1.6411203228
 C         -0.5731626262       -3.8077663120        0.4694563378
 C         -0.7930241596       -3.0540545663       -0.6721212214
 C         -1.6842705189       -1.9962225858       -0.6451222695
 C         -2.2769872568        1.0640577773        1.1812470515
 C         -2.6523841610        1.9815064159        2.1516386311
 C         -1.7449861387        2.9373622469        2.5756609736
 C         -0.4608155388        2.9559164984        2.0598566035
 C         -0.0665985865        2.0234153887        1.1018720034
 C          1.3005457500        2.0104600605        0.5597817007
 C          1.8469272059        3.1933046829        0.0702180713
 C          3.0936729805        3.2199862563       -0.5180440144
 C          3.8447887876        2.0506326579       -0.6462576143
 C          5.1202062734        2.0387035902       -1.2821204019
 C          5.8346918104        0.8963071271       -1.4016270554
 C          5.3407084953       -0.3387134169       -0.8882401178
 C          6.0611596788       -1.5289181137       -1.0008348282
 C          5.5592696061       -2.7108107656       -0.4878517687
 C          4.3331180912       -2.7345103928        0.1503679145
 C          3.5774225880       -1.5687960099        0.2839102161
 C          2.3243141649       -1.5472403155        0.9606046654
 C          1.5999794889       -0.4097275550        1.0686665542
 C          2.0488585423        0.8191897401        0.4965111814
 C          3.3223807670        0.8391787513       -0.1285203891
 C          4.0784480422       -0.3538077551       -0.2440173208
 C         -0.9973670635        1.0939832417        0.6501830356
 H         -5.6885972037       -1.1903512167       -0.6556440437
 H         -6.6274892617       -0.8245432409       -2.9277699050
 H         -5.4990777251        0.7306620024       -4.4753872135
 H         -3.4549156422        1.9108145527       -3.7689622200
 H         -2.5224822320        1.5334224635       -1.5186419354
 H         -2.6851703489       -2.2033096807        2.5712578967
 H         -1.0835678270       -4.1043611603        2.5291387164
 H          0.1245995648       -4.6321327213        0.4419984226
 H         -0.2659940427       -3.2902126657       -1.5851467164
 H         -1.8653204277       -1.4120541978       -1.5370653711
 H         -3.6486266063        1.9248801557        2.5653062943
 H         -2.0328942456        3.6607865192        3.3244721219
 H          0.2562852139        3.6795984059        2.4198307701
 H          1.2637710823        4.1013788144        0.1323694702
 H          3.4928278426        4.1491337417       -0.8990827760
 H          5.5019208632        2.9726216166       -1.6701768157
 H          6.7998427146        0.8958487857       -1.8882248780
 H          7.0216726324       -1.5175525145       -1.4958724238
 H          6.1319585635       -3.6221116504       -0.5831606933
 H          3.9488147302       -3.6595680397        0.5554861822
 H          1.9631553241       -2.4659049935        1.4006204922
 H          0.6685505222       -0.4206537659        1.6148767281
 H         -0.7135456320        0.3858195424       -0.1155056900
