106
 energy: -178.677270517850 gnorm: 0.000191991919 xtb: 6.7.1 (edcfbbe)
N           -2.39073301077846        3.31668757178125        0.41928201374454
C           -1.73008860981906        2.38853972160390        0.22559931951774
C           -0.99680209701583        1.21881983101501        0.03614743517749
C            0.45029812738552        1.16489887562616       -0.02609249849278
C            1.30085443716624        2.32816643600147       -0.10977691499267
C            0.84757723489472        3.58164399505840       -0.54922287347970
C            1.70272403974541        4.65776736527295       -0.61924425551978
C            3.03963682520827        4.51936452267872       -0.25417213616560
N            3.91474735846836        5.63412298245860       -0.31254551826059
C            3.74038807380076        6.71055642600411        0.54594353554687
C            2.73320423532620        6.73703898002574        1.50754943006431
C            2.58777986069969        7.82872317261340        2.34489117947783
C            3.44648920342790        8.90938606661890        2.24598290954889
C            4.46833607124047        8.89105949941941        1.31046020515313
C            4.62131386059299        7.80251861477545        0.46964552493967
O            5.66461821703729        7.83771642143651       -0.41601752773234
C            5.82231848793120        6.76837352483757       -1.25487628994947
C            6.87343699537243        6.81796884713093       -2.15376411362945
C            7.07545735891005        5.77793695820773       -3.04679206626371
C            6.21298050558008        4.69590323921512       -3.04566571590290
C            5.16069357396642        4.63772446370147       -2.14929070885809
C            4.95613022012862        5.66223296661892       -1.22812058312334
C            3.51358950700281        3.27602505335710        0.16740036617858
C            2.66012333909690        2.20288028823447        0.23218360527167
N            1.05958803151565       -0.00452545320845        0.00187879020779
C            0.44151856005848       -1.16938288575900        0.02977997243124
C            1.28335517743150       -2.33895065662323        0.11346043851469
C            2.64378200816767       -2.22360555605735       -0.22748949229752
C            3.48937077827253       -3.30295930301618       -0.16216073786296
C            3.00599910223262       -4.54283504605498        0.25886320944673
N            3.87280327836145       -5.66398733667741        0.31902483310134
C            4.91075142028430       -5.70078322605171        1.23819371188509
C            5.12275357885518       -4.67650111436827        2.15791994942837
C            6.17124959722498       -4.74370066343391        3.05810177078744
C            7.02238410314051       -5.83464904409148        3.06456681526771
C            6.81278160556414       -6.87434377069710        2.17289961558550
C            5.76546416926844       -6.81568486036833        1.27013000929574
O            5.59973932220144       -7.88507709003558        0.43286984622854
C            4.56032181164885       -7.84073618821667       -0.45693470047709
C            4.39935604980703       -8.92909346900463       -1.29648362778317
C            3.38103235833627       -8.93843420121471       -2.23597680728983
C            2.53395587714659       -7.84911122388417       -2.34010751873392
C            2.68729637532287       -6.75761892730516       -1.50393811566313
C            3.69090686095863       -6.73996844261268       -0.53840628838135
C            1.66768460063656       -4.67162735935138        0.62234807150001
C            0.82049270898433       -3.58928612501601        0.55190712828302
C           -1.00596991608041       -1.21235386014653       -0.03269087858488
C           -1.74819770324454       -2.37647431873127       -0.22221096527368
N           -2.41597778821559       -3.29943057529785       -0.41583285182809
C           -1.69043505884765        0.00582525379149        0.00157198764285
C           -3.16385512324630        0.01147844540606        0.00078598931416
C           -3.86194075098633        0.69918726211520       -0.98653337836261
C           -5.24207101808950        0.70213016916197       -0.99294079774548
C           -5.93767222756736        0.02201464763221       -0.00145387130021
N           -7.35654807191518        0.02751431595802       -0.00285987155675
C           -8.06109236136073       -1.13401463513156       -0.28992615449189
C           -7.42267957204099       -2.32789728497909       -0.61400048587241
C           -8.16030063231391       -3.46450546856524       -0.89577041728537
C           -9.54318590895293       -3.42945248365891       -0.86674753125229
C          -10.19489988571493       -2.24448751795090       -0.56473472336244
C           -9.46537932466481       -1.10283210200616       -0.28234734960824
O          -10.16868724455140        0.03993858118110       -0.01016841238671
C           -9.45676955429781        1.17623882502388        0.26663701394500
C          -10.17759095518420        2.32412667828771        0.54609282459921
C           -9.51695617683880        3.50301472578176        0.85248750841554
C           -8.13398184293169        3.52575916687375        0.88879260619974
C           -7.40502582717461        2.38288435215092        0.60985148300398
C           -8.05232995683364        1.19498006729564        0.28146433283311
C           -5.24887892168332       -0.66326057383332        0.99121681244382
C           -3.86872482099429       -0.67080018585524        0.98703683439163
H           -0.17705496643677        3.70914676569785       -0.85768881097520
H            1.34397204604860        5.61595933582422       -0.96657234273631
H            2.06608097582736        5.89482986418780        1.59740226125216
H            1.79733171824632        7.82802764608620        3.07901770276369
H            3.33154287733858        9.76180636237689        2.89644831263812
H            5.16260317424114        9.71074536417716        1.21761313911122
H            7.51825977776497        7.68194071932068       -2.13968611834394
H            7.89774977474507        5.82232492014586       -3.74306785607614
H            6.35321345094002        3.88889405412336       -3.74790530212723
H            4.48486545861504        3.79766743430291       -2.16164518943077
H            4.55119089678552        3.17316916732741        0.45204102568576
H            3.01400840959015        1.24044901869448        0.56729312094803
H            3.00500631653387       -1.26368654089462       -0.56197353625434
H            4.52797006978104       -3.20756618913910       -0.44575545405979
H            4.45564525203709       -3.82945899270821        2.16622428785938
H            6.31743859315497       -3.93666016886583        3.75909145673610
H            7.84166604041242       -5.88614006654862        3.76389606366619
H            7.44859387916462       -7.74502631419609        2.16292442593422
H            5.08465060549600       -9.75581873511451       -1.19946634240694
H            3.25972916851126       -9.79079468807347       -2.88536849534286
H            1.74646191049261       -7.84152662180621       -3.07736407758267
H            2.02924210227686       -5.90871048950453       -1.59764417462283
H            1.30161125585545       -5.62733682723911        0.96888397919499
H           -0.20535284827609       -3.70947252805974        0.85924784922485
H           -3.32034893247709        1.22225042180464       -1.76042648461719
H           -5.78608605225493        1.22839921903280       -1.76321651958580
H           -6.34543566057279       -2.36343858639136       -0.64886684723724
H           -7.64351213555403       -4.37888539394943       -1.14113997561663
H          -10.11812660459987       -4.31550252010472       -1.08434075272493
H          -11.27110304246279       -2.18183806803523       -0.54576645266243
H          -11.25419388246218        2.27110208071455        0.52133767169597
H          -10.08513121280629        4.39397800566999        1.06778068453508
H           -7.61038747928283        4.43530715824213        1.13766757345457
H           -6.32769601484261        2.40881910790058        0.65022144550978
H           -5.79810300556667       -1.18525113625857        1.76070656488029
H           -3.33238503522571       -1.19799021229936        1.76178764535166
