106
 energy: -178.734542332767 gnorm: 0.000101297206 xtb: 6.7.1 (edcfbbe)
N           -2.13303710119138        3.38573922873038        0.51577742314313
C           -1.56801292436647        2.41620194926198        0.27328677311057
C           -0.88333277311753        1.20408471821672        0.04904211146481
C            0.52667725216488        1.14949544238197       -0.01887230025101
C            1.36311721153341        2.34545662642997       -0.08913785289931
C            0.94815593581943        3.50265265947804       -0.74796013935355
C            1.76864044822936        4.60938564008676       -0.79834371379935
C            3.02210505848915        4.58698116810995       -0.18900844856292
N            3.84960983059187        5.72199161728317       -0.22760863090429
C            3.42162396211378        6.93487267332681        0.32531043019122
C            2.20302699700788        7.06617263671003        0.97985961046378
C            1.81354535780652        8.28236257023849        1.51951452689993
C            2.63927258938496        9.38441896145941        1.42684234948771
C            3.87475715285246        9.26094879525644        0.80990294584156
C            4.26885480654953        8.04944631402217        0.27205546040829
O            5.52122079620604        7.99878595904719       -0.28675681684153
C            5.92632201681212        6.80470267242262       -0.82568338968040
C            7.18218516144222        6.77464747706580       -1.40388061362923
C            7.64976302948519        5.61548425043414       -2.00409704697012
C            6.84250911072252        4.49670575870460       -2.04039634478438
C            5.58352015128826        4.52097127992207       -1.46021396027191
C            5.11505695155946        5.66211937003885       -0.82056977795336
C            3.44924154606376        3.42427550624510        0.45256168799654
C            2.63252315526629        2.31640861037885        0.49258125286843
N            1.16906235541841       -0.00763398159605        0.00476488765816
C            0.51682888473572       -1.15956161659861        0.02318638390426
C            1.34359182223779       -2.36199996144170        0.09631221449193
C            2.62033824151382       -2.33738182285857       -0.46963776215998
C            3.42928777649602       -3.45075085076207       -0.42751342941758
C            2.98619414078622       -4.61553804986500        0.19925683298604
N            3.80574875738697       -5.75633403109269        0.23860196853862
C            5.06389526953189       -5.70900201072260        0.84787922166099
C            5.52775371442417       -4.57820956359391        1.50890224562918
C            6.77908789291682       -4.56633304994892        2.10576370616692
C            7.58295538265964       -5.68740866695080        2.06471619294617
C            7.11950602929983       -6.83661100530288        1.44253506073339
C            5.87116198482444       -6.85437428436227        0.84779027728182
O            5.46905458336597       -8.03932721141994        0.28699810770534
C            4.22279164665115       -8.07845668354035       -0.28623330086941
C            3.83099288689910       -9.28148502849683       -0.84431679620706
C            2.60214894724393       -9.39277907901181       -1.47668912746789
C            1.78067413043533       -8.28709926592784       -1.56350426460845
C            2.16773638863657       -7.07939240874420       -1.00337161785632
C            3.37968682000851       -6.96048351947672       -0.33434054629952
C            1.72529659445759       -4.63402684406867        0.79310125283048
C            0.91315284312158       -3.52113509091977        0.74172700288757
C           -0.89320310297434       -1.20181367185278       -0.05318145612573
C           -1.58825772195587       -2.40685199606576       -0.28365980838808
N           -2.16303696929446       -3.36920324530403       -0.53179018315172
C           -1.60800824994040        0.00421302868386       -0.00336765641741
C           -3.07311754612773        0.01036440037515       -0.00517622326283
C           -3.77505422331011        0.84652264556661       -0.87183670757945
C           -5.15325848537543        0.84758784352274       -0.87902017107911
C           -5.86061642526865        0.02353362069053       -0.00584238453426
N           -7.26569584163458        0.03072076733366       -0.00540086832060
C           -7.98350716520263       -1.13751793319736       -0.28520411501264
C           -7.35987230546266       -2.32708353544367       -0.64091694066693
C           -8.10358302615323       -3.46469313598597       -0.91514750010146
C           -9.48176536109377       -3.43045698595553       -0.85160150809819
C          -10.12087231696538       -2.24144603595831       -0.53429686982946
C           -9.38398768124691       -1.10340283113364       -0.26248995876927
O          -10.09001095651773        0.04232679267695        0.00552927509983
C           -9.37249731694558        1.18216443772452        0.26804042146960
C          -10.09798588540158        2.32614840662503        0.54555968442883
C           -9.44686543540494        3.50995835379083        0.85778389045280
C           -8.06800449921426        3.53305598629782        0.91051727189220
C           -7.33568459534282        2.38942810976935        0.63070607969697
C           -7.97163034783932        1.20489144126284        0.28007909902381
C           -5.16147287484158       -0.80763365847814        0.86723808881531
C           -3.78337527658039       -0.81953973946375        0.86078536251456
H           -0.00517099564857        3.53056212942005       -1.25295479694862
H            1.44888961098977        5.49758293644411       -1.32223938371796
H            1.55317797080935        6.21117888906037        1.07910221882868
H            0.85836350600850        8.35464341281456        2.01594932757526
H            2.33860430588872       10.33406587396216        1.84012638969641
H            4.55508352113089       10.09455579443338        0.74020053140837
H            7.77633777727373        7.67400623495605       -1.37834780985516
H            8.63209235408708        5.60025239395873       -2.44890518880744
H            7.18153954691324        3.59378835779539       -2.52444349587539
H            4.95674133667751        3.64493774810769       -1.51560556307687
H            4.41930216357061        3.40540795559512        0.92667243095473
H            2.95226536413791        1.41530860507502        0.99245590121719
H            2.95202701304380       -1.43476820679577       -0.95884718666337
H            4.40562108066847       -3.43474588573712       -0.88868359334184
H            4.90324151418019       -3.70074873035843        1.56762360689821
H            7.11478081540483       -3.67138581796830        2.60663852625010
H            8.55935524251851       -5.68175183390883        2.52260702452282
H            7.71103403243145       -7.73754774497348        1.41219639370842
H            4.50790152627894      -10.11814130253551       -0.77803198132809
H            2.30333568528346      -10.33581014103284       -1.90613659033624
H            0.83077946178553       -8.34981667225531       -2.07125382382546
H            1.52145087027790       -6.22119982619483       -1.09811342343387
H            1.39314080589065       -5.52400394121064        1.30614135915275
H           -0.04609260375292       -3.54640728922020        1.23545033212867
H           -3.23749696924100        1.47416661772426       -1.56731067141443
H           -5.69204053328464        1.48085626325366       -1.56747288458657
H           -6.28455774366159       -2.36779457426978       -0.71477072821077
H           -7.59033889900736       -4.37526021916163       -1.18257869887521
H          -10.06468002077416       -4.31394771343825       -1.05855668285865
H          -11.19634017356081       -2.17278056007833       -0.49801844802181
H          -11.17422679811754        2.26613809559378        0.51783298259029
H          -10.02098689714635        4.39812410352815        1.06925993586281
H           -7.54533585713200        4.43946583681631        1.17377723524005
H           -6.25956706338160        2.42151868447050        0.69641259187328
H           -5.70661176579272       -1.43599526822564        1.55519454706979
H           -3.25212118270289       -1.45220151760136        1.55656598574227
