106
 energy: -178.677282771547 gnorm: 0.000058982821 xtb: 6.7.1 (edcfbbe)
N           -2.31687348221119        3.37661754076386        0.45463515164826
C           -1.67831499405453        2.43516160475811        0.25159611187811
C           -0.97293138041369        1.25041272682755        0.04992875437088
C            0.47240746897017        1.16211362034120       -0.01388270562140
C            1.35393958828697        2.30285170362969       -0.08689339579778
C            0.93390496067665        3.57533695145530       -0.50393007642055
C            1.82049792220454        4.62617558086174       -0.56878389188352
C            3.15651521294055        4.44240800627040       -0.22126556616712
N            4.06495891532758        5.53053795035627       -0.27688930868528
C            3.93998846506447        6.59579293604001        0.60350250750314
C            2.95288438819671        6.63423717138138        1.58523733385757
C            2.85707225534989        7.71386030482513        2.44503097385091
C            3.74611311217250        8.76991714535482        2.34839398452552
C            4.74813205755355        8.73896237632757        1.39194170818783
C            4.85151783752944        7.66237988236722        0.52851929807137
O            5.87688449864855        7.68319182142477       -0.37834868357258
C            5.98660999442373        6.62420930994205       -1.23785885629004
C            7.02062160241415        6.65863173617943       -2.15704808353781
C            7.17492438023153        5.62790218139868       -3.07019103485507
C            6.28257761229342        4.57037759979529       -3.06801560971629
C            5.24684188102954        4.52757834477695       -2.15169429637501
C            5.08934113536754        5.54311689222502       -1.21160559394366
C            3.59693898430291        3.18039465193548        0.18033113461379
C            2.71197703537814        2.13295539897795        0.24090701617448
N            1.05209440111324       -0.02234976905330        0.00023428142432
C            0.40688814123374       -1.17243416327252        0.01449788548952
C            1.22263988939470       -2.36099157078556        0.08811714110920
C            2.58844293310364       -2.26819010383343       -0.23830873337460
C            3.41279567978757       -3.36389027004270       -0.17615110820553
C            2.90136921536731       -4.59878932310562        0.22558425882020
N            3.74687365649529       -5.73639131400174        0.28353524829276
C            4.76670677697442       -5.80638870589452        1.22067265423002
C            4.97956268493103       -4.80056259717918        2.16028956439207
C            6.00926682763336       -4.90122458677201        3.07887942485001
C            6.84019822985270       -6.00763992687908        3.08374424800457
C            6.62948005679836       -7.02887842924286        2.17119812149749
C            5.60093477834706       -6.93675581081026        1.24985685896316
O            5.43273198813382       -7.98881904538282        0.39126586139362
C            4.41210382397981       -7.91061649174365       -0.51784111704809
C            4.24900640920200       -8.98067403751912       -1.38015088378390
C            3.24896845435812       -8.95537982981498       -2.33885672088451
C            2.42224584309554       -7.85016789096966       -2.43890046104392
C            2.57784561027113       -6.77671476673271       -1.58011738825681
C            3.56327196211798       -6.79372376536845       -0.59610275237855
C            1.55664230216692       -4.70678143982280        0.57129213191480
C            0.73089740603061       -3.60761778104371        0.50492767249459
C           -1.04109120162613       -1.17935603753043       -0.04843444613290
C           -1.81214413057153       -2.32231916567935       -0.25083105506720
N           -2.50303430820966       -3.22579938613543       -0.45521520314432
C           -1.69549492256704        0.05489773216766        0.00145873370459
C           -3.16848398504150        0.09439291755116        0.00241315537449
C           -3.85246446022517        0.80614065697940       -0.97765950287442
C           -5.23232500687873        0.83610698000958       -0.98457058530624
C           -5.94193938538616        0.15973086623816       -0.00037962396309
N           -7.36029703974674        0.19013198810739       -0.00353900765193
C           -8.08447432141793       -0.95987537606724       -0.28940012618961
C           -7.46669861940272       -2.16441547675497       -0.61422882163069
C           -8.22353938544728       -3.28897237238730       -0.89336354098302
C           -9.60559433258485       -3.23133300675623       -0.86114107856481
C          -10.23693696189275       -2.03529829920182       -0.55970609750354
C           -9.48802955474025       -0.90547779739466       -0.28034062151109
O          -10.17214240602204        0.24925954938167       -0.00997875613976
C           -9.44132040126594        1.37423457420298        0.26342919648004
C          -10.14323135497216        2.53464739738107        0.53935952981303
C           -9.46344841019100        3.70311014419598        0.84360551405573
C           -8.08035302914611        3.70255969469811        0.88206372303752
C           -7.37029156004320        2.54706155538044        0.60639470980826
C           -8.03676245294872        1.36953529428877        0.27886795882857
C           -5.26693737489606       -0.54763745679299        0.98639580998312
C           -3.88726973365321       -0.58261673978577        0.98228576298485
H           -0.08975589488268        3.73794410761560       -0.79872397414581
H            1.48725968461528        5.59959607284329       -0.89873717210229
H            2.26246145971858        5.81072824572241        1.67263079538363
H            2.08151545550061        7.72316578564333        3.19481358286093
H            3.66989145667356        9.61295541709330        3.01652842361815
H            5.46458870005570        9.53940039316663        1.29980952848765
H            7.69016156194872        7.50358539309518       -2.14255604000198
H            7.98399193708671        5.66045172999671       -3.78243438184393
H            6.38630035923748        3.77081472414075       -3.78496358582274
H            4.54752603293380        3.70693387999501       -2.16276613675973
H            4.63388695878396        3.04270033275283        0.45232051580031
H            3.03986981339648        1.15627609607470        0.56079543440490
H            2.97130280398779       -1.31172454841217       -0.55820951231556
H            4.45621992195907       -3.28509105319369       -0.44680198345728
H            4.32789936910614       -3.94156537391811        2.16918620764368
H            6.15667152405415       -4.10818527904613        3.79542181751260
H            7.64472870620869       -6.08531480055444        3.79763367410416
H            7.25000456192892       -7.91048698481023        2.15888863051116
H            4.91812309334971       -9.82079457519172       -1.28541471281549
H            3.12597668252144       -9.79357367514099       -3.00611289263318
H            1.64921271693027       -7.81590154589807       -3.19056243532472
H            1.93599868605961       -5.91506606323814       -1.67003721974189
H            1.16856643524991       -5.65972788700939        0.90107222055144
H           -0.30068266178949       -3.71209694235203        0.79841959421075
H           -3.30037650515071        1.32615343957689       -1.74617718170782
H           -5.76529191444125        1.37997323583319       -1.75034731738282
H           -6.39032532792368       -2.21807657519255       -0.65197970789020
H           -7.72230502003815       -4.21183922985639       -1.13919496628705
H          -10.19549781392387       -4.10812924828949       -1.07615125931512
H          -11.31190675532588       -1.95461513331184       -0.53894208313128
H          -11.22054086961663        2.49930523190558        0.51374433620940
H          -10.01688192475248        4.60400936087322        1.05590253832734
H           -7.54190770226847        4.60362627037848        1.13010179929608
H           -6.29278255741993        2.55508656961656        0.64896477874873
H           -5.82650705083158       -1.06594879773170        1.75091070145005
H           -3.36186635585503       -1.12791756344522        1.75199246214242
