  106
       -178.73430243
 N         -2.1376352272        3.3980804839        0.4830912673
 C         -1.5721867597        2.4274344378        0.2465763365
 C         -0.8872363377        1.2147395085        0.0273285537
 C          0.5230248700        1.1562241657       -0.0367044297
 C          1.3637876652        2.3493214402       -0.1050848585
 C          0.9533441456        3.5104333034       -0.7599849447
 C          1.7783155103        4.6139575992       -0.8070143832
 C          3.0321395953        4.5848639186       -0.1985004127
 N          3.8635456586        5.7170962878       -0.2338370456
 C          3.4387878146        6.9301017068        0.3214286140
 C          2.2224329587        7.0620818939        0.9799879952
 C          1.8359771928        8.2780534582        1.5223295080
 C          2.6624313516        9.3794393760        1.4278345949
 C          3.8957421628        9.2553261674        0.8067256417
 C          4.2870466691        8.0438441603        0.2668193591
 O          5.5379062221        7.9921885514       -0.2951074535
 C          5.9421567963        6.7966865901       -0.8313793216
 C          7.1987879628        6.7645161931       -1.4078361566
 C          7.6663810512        5.6039693213       -2.0052295881
 C          6.8580167232        4.4859404296       -2.0408711552
 C          5.5981106409        4.5125086549       -1.4627792915
 C          5.1296714812        5.6549251465       -0.8253271103
 C          3.4548636849        3.4182414655        0.4388945638
 C          2.6335708230        2.3136413095        0.4756039632
 N          1.1616928029       -0.0025994134       -0.0090143144
 C          0.5077617194       -1.1539342468        0.0063665985
 C          1.3339874967       -2.3563456221        0.0854591725
 C          2.6259889219       -2.3212372448       -0.4450767347
 C          3.4372816282       -3.4325086078       -0.3948131745
 C          2.9794576478       -4.6078853051        0.2006476153
 N          3.7998382559       -5.7482729192        0.2432793857
 C          5.0368041837       -5.7119594939        0.8947247737
 C          5.4725842692       -4.5967445850        1.5997713895
 C          6.7023933605       -4.5960595712        2.2399514854
 C          7.5121113884       -5.7129246731        2.1979473821
 C          7.0759895364       -6.8469920580        1.5298421702
 C          5.8490713898       -6.8537811077        0.8919470360
 O          5.4722844083       -8.0245338515        0.2856104037
 C          4.2443221849       -8.0545265405       -0.3264774533
 C          3.8764340150       -9.2443424398       -0.9274835229
 C          2.6676667886       -9.3451757845       -1.5991230559
 C          1.8421054282       -8.2421494954       -1.6805495175
 C          2.2053377318       -7.0476002405       -1.0777849597
 C          3.3967717394       -6.9397066285       -0.3712071308
 C          1.7026981858       -4.6379841192        0.7587602157
 C          0.8900839969       -3.5255583190        0.7032276199
 C         -0.9021981104       -1.1919422802       -0.0757206640
 C         -1.6052962848       -2.3912765769       -0.3115702984
 N         -2.1918538935       -3.3449897462       -0.5657031189
 C         -1.6136745249        0.0161685908       -0.0252127562
 C         -3.0790997417        0.0230482978       -0.0233104969
 C         -3.7850183229        0.8497795573       -0.8953725143
 C         -5.1635336497        0.8474559764       -0.8990807944
 C         -5.8664979131        0.0306506825       -0.0157924578
 N         -7.2717087491        0.0308859345       -0.0122087436
 C         -7.9818813176       -1.1482645709       -0.2649456853
 C         -7.3516894284       -2.3349996725       -0.6186492086
 C         -8.0874660169       -3.4840979042       -0.8648612884
 C         -9.4644899666       -3.4645750761       -0.7749604703
 C        -10.1109415088       -2.2788211574       -0.4603556665
 C         -9.3819402632       -1.1293237312       -0.2168471883
 O        -10.0954577018        0.0120038210        0.0497666625
 C         -9.3857468638        1.1623631600        0.2864680377
 C        -10.1189659471        2.3011784965        0.5647432173
 C         -9.4758376476        3.4957348159        0.8515082143
 C         -8.0965868952        3.5350115724        0.8776185877
 C         -7.3564928451        2.3965358420        0.5971577754
 C         -7.9851067380        1.2006934150        0.2726503722
 C         -5.1629172177       -0.7894304551        0.8643205605
 C         -3.7850338348       -0.7992187079        0.8534795289
 H          0.0000912021        3.5438863871       -1.2647740614
 H          1.4617196395        5.5051278552       -1.3278314918
 H          1.5717491997        6.2077676811        1.0799287868
 H          0.8824048813        8.3509870780        2.0217364379
 H          2.3638545721       10.3291221568        1.8425729638
 H          4.5765290656       10.0884129899        0.7351466392
 H          7.7937059050        7.6634044194       -1.3824889021
 H          8.6494627327        5.5870404513       -2.4483485262
 H          7.1969566707        3.5817302963       -2.5225344779
 H          4.9705388662        3.6370510548       -1.5183125203
 H          4.4245323957        3.3939521699        0.9135561835
 H          2.9493167697        1.4103354038        0.9741185944
 H          2.9684560834       -1.4107090076       -0.9117259934
 H          4.4268857262       -3.4069555768       -0.8263596500
 H          4.8423777257       -3.7232860930        1.6584190229
 H          7.0168327641       -3.7132030565        2.7749477174
 H          8.4720349300       -5.7155389412        2.6894723884
 H          7.6727283153       -7.7443914143        1.4959966448
 H          4.5560839053      -10.0789240054       -0.8629310375
 H          2.3875447645      -10.2780051426       -2.0621987242
 H          0.9076567957       -8.2965805395       -2.2170908041
 H          1.5567195269       -6.1907149998       -1.1686203764
 H          1.3583683465       -5.5366610103        1.2480655432
 H         -0.0815988910       -3.5607380858        1.1711131532
 H         -3.2504235185        1.4719457109       -1.5980294578
 H         -5.7053192262        1.4714015513       -1.5936433117
 H         -6.2774860417       -2.3648771119       -0.7119329995
 H         -7.5688462394       -4.3920832382       -1.1307622256
 H        -10.0411473672       -4.3571183290       -0.9593956905
 H        -11.1862406733       -2.2215844322       -0.4042517649
 H        -11.1948251023        2.2288212921        0.5578223964
 H        -10.0560270546        4.3797271099        1.0639842594
 H         -7.5796449509        4.4505604158        1.1196608166
 H         -6.2798022802        2.4414361330        0.6426796301
 H         -5.7048775237       -1.4115564856        1.5604495209
 H         -3.2500992803       -1.4226089805        1.5548631797
