  106
       -178.67557631
 N         -2.2987154576        3.4026187641        0.4442405180
 C         -1.6688246805        2.4569633652        0.2344082197
 C         -0.9703330039        1.2694023071        0.0240077234
 C          0.4736043581        1.1768778650       -0.0438719125
 C          1.3579535900        2.3157964691       -0.1137148008
 C          0.9430963270        3.5886387203       -0.5355341098
 C          1.8319103327        4.6378814140       -0.5953421019
 C          3.1650354267        4.4523434232       -0.2371007888
 N          4.0769773825        5.5378442906       -0.2855505597
 C          3.9496276804        6.6036521220        0.5936240176
 C          2.9468106493        6.6533594959        1.5589470105
 C          2.8499213110        7.7332270406        2.4182706514
 C          3.7535463094        8.7783136724        2.3381972314
 C          4.7707070143        8.7361923914        1.3983772450
 C          4.8748661140        7.6596079641        0.5349701610
 O          5.9150414139        7.6694228204       -0.3548322440
 C          6.0253234235        6.6113925629       -1.2152245253
 C          7.0736413560        6.6354952728       -2.1183999234
 C          7.2294575659        5.6051017034       -3.0316365501
 C          6.3242790014        4.5586140795       -3.0459440175
 C          5.2743961909        4.5260276729       -2.1455879899
 C          5.1149771852        5.5409423231       -1.2049609863
 C          3.6004940355        3.1894882400        0.1682180542
 C          2.7136073295        2.1435872592        0.2229926117
 N          1.0518717200       -0.0085347878       -0.0316152933
 C          0.4021366399       -1.1565908126       -0.0190038905
 C          1.2143420634       -2.3471425093        0.0583838393
 C          2.5822453381       -2.2585316028       -0.2614005244
 C          3.4040917039       -3.3554088174       -0.1904058754
 C          2.8883427757       -4.5879406793        0.2138525511
 N          3.7319705742       -5.7262335731        0.2836050034
 C          4.7462522623       -5.7914887099        1.2267603601
 C          4.9559208507       -4.7795729635        2.1606686109
 C          5.9806905425       -4.8754268123        3.0851400203
 C          6.8100603106       -5.9828619335        3.1019087335
 C          6.6022539419       -7.0101944227        2.1956682275
 C          5.5784585119       -6.9230311035        1.2685601489
 O          5.4124645517       -7.9810104169        0.4171673966
 C          4.3952728758       -7.9088900391       -0.4959297277
 C          4.2323553487       -8.9866228173       -1.3486655709
 C          3.2359674059       -8.9676365130       -2.3112278257
 C          2.4130029135       -7.8609056598       -2.4249853830
 C          2.5682975084       -6.7799054432       -1.5758197749
 C          3.5495973819       -6.7904662548       -0.5874634073
 C          1.5410052628       -4.6921869909        0.5513833575
 C          0.7177752810       -3.5919592659        0.4759048456
 C         -1.0448439764       -1.1592397104       -0.0829231486
 C         -1.8174051625       -2.2998634005       -0.2939545927
 N         -2.5083894065       -3.2011689975       -0.5074267248
 C         -1.6969423475        0.0763335349       -0.0256403336
 C         -3.1696005023        0.1161396292       -0.0153070403
 C         -3.8621728829        0.8444399190       -0.9770471098
 C         -5.2423636776        0.8671107912       -0.9771311304
 C         -5.9439200008        0.1658128295       -0.0047767645
 N         -7.3625432917        0.1805176412       -0.0038244952
 C         -8.0725359636       -0.9751468095       -0.3024251459
 C         -7.4404419499       -2.1635539461       -0.6579937781
 C         -8.1832587567       -3.2944078049       -0.9488663904
 C         -9.5655043878       -3.2592548697       -0.8980147947
 C        -10.2113885308       -2.0791361487       -0.5662509834
 C         -9.4765501407       -0.9430268318       -0.2751961486
 O        -10.1748288342        0.1956168013        0.0253359815
 C         -9.4580788340        1.3267943222        0.3097438418
 C        -10.1744706161        2.4706971400        0.6157867483
 C         -9.5093235615        3.6442627767        0.9323253804
 C         -8.1260215268        3.6651371866        0.9526515519
 C         -7.4015156888        2.5261581665        0.6473671994
 C         -8.0534242168        1.3439710006        0.3075597334
 C         -5.2603126824       -0.5555455830        0.9659544119
 C         -3.8807209502       -0.5820280638        0.9556008698
 H         -0.0781270254        3.7522698083       -0.8383398643
 H          1.5028552003        5.6112934302       -0.9295814971
 H          2.2450853011        5.8382880208        1.6341230904
 H          2.0619111922        7.7514226237        3.1547748101
 H          3.6768159719        9.6212593965        3.0063938809
 H          5.4987084590        9.5275657696        1.3194412720
 H          7.7530491879        7.4721697328       -2.0914732685
 H          8.0496165856        5.6294605172       -3.7313835148
 H          6.4290551563        3.7598801951       -3.7636375266
 H          4.5654603880        3.7140455681       -2.1694816256
 H          4.6353497820        3.0502289712        0.4473690268
 H          3.0377358587        1.1662949626        0.5446741801
 H          2.9686984401       -1.3038533219       -0.5822551896
 H          4.4491897693       -3.2796606459       -0.4554905451
 H          4.3054794751       -3.9197416859        2.1603234764
 H          6.1256644448       -4.0777662397        3.7969793103
 H          7.6109461715       -6.0565888464        3.8202910249
 H          7.2213364663       -7.8927885087        2.1927753227
 H          4.8990056251       -9.8274589598       -1.2437463053
 H          3.1136451027       -9.8114582308       -2.9715578547
 H          1.6439884860       -7.8310168631       -3.1808692651
 H          1.9297705260       -5.9171305323       -1.6767412455
 H          1.1493358458       -5.6431542651        0.8827279728
 H         -0.3157758456       -3.6936482826        0.7634380186
 H         -3.3167678338        1.3822601357       -1.7379663851
 H         -5.7815514132        1.4227230392       -1.7299925600
 H         -6.3639824992       -2.1998544278       -0.7102104798
 H         -7.6708811314       -4.2042867053       -1.2190231634
 H        -10.1443597618       -4.1410401526       -1.1222718729
 H        -11.2870814772       -2.0157630595       -0.5303008877
 H        -11.2512867231        2.4184249815        0.6035909402
 H        -10.0740198989        4.5322942897        1.1678563186
 H         -7.5987561593        4.5704341788        1.2092476510
 H         -6.3238298462        2.5504708830        0.6763453683
 H         -5.8135521264       -1.0924527315        1.7221786329
 H         -3.3492277716       -1.1384635793        1.7130177821
