  69
       -117.55450116
 C         -7.8686257964       -4.0384556722       -0.0210861395
 C         -6.5750699804       -3.7793266344        0.3839224822
 C         -6.0765051183       -2.4858221013        0.3538272550
 C         -6.8606109236       -1.4302693197       -0.0946827971
 C         -8.1845251551       -1.6987649758       -0.4667203136
 C         -8.6762455491       -2.9907060828       -0.4371292926
 O         -9.0551418725       -0.7125068162       -0.8556121011
 C         -8.5869472616        0.5775120516       -0.8666044119
 C         -9.4772543612        1.5608838179       -1.2564769255
 C         -9.0709639648        2.8847591421       -1.3295252264
 C         -7.7644338402        3.2115134053       -1.0286740146
 C         -6.8683181335        2.2293858832       -0.6348610437
 C         -7.2681469944        0.9036161000       -0.5234002121
 N         -6.3902255503       -0.1137456906       -0.1344813187
 C         -5.0560581529        0.1787125477        0.2041265323
 C         -4.7707775112        1.0202796840        1.2801859163
 C         -3.4645378983        1.3041452371        1.6123624311
 C         -2.4183032751        0.7477874709        0.8733517709
 C         -1.0577935480        1.0488956218        1.2408784266
 N         -0.6655697498        1.8231792875        2.2124937567
 N          0.6705643774        1.8211522571        2.2109103674
 C          1.0581791947        1.0457149102        1.2383870041
 C          2.4166676626        0.7417790392        0.8658794965
 C          2.6947716346       -0.0859962202       -0.2220858414
 C          4.0014739867       -0.3670869268       -0.5605308636
 C          5.0508334203        0.1699499597        0.1838850283
 N          6.3836650101       -0.1221966654       -0.1594747224
 C          7.2682189852        0.9019441345       -0.5145394467
 C          6.8648705023        2.2267451575       -0.6254591761
 C          7.7667359708        3.2165673128       -0.9852842497
 C          9.0828920788        2.8985566718       -1.2520455540
 C          9.4932744137        1.5758803775       -1.1808135777
 C          8.5970472204        0.5847523917       -0.8255522838
 O          9.0697750783       -0.7033570172       -0.8145640360
 C          8.1889632401       -1.6982588937       -0.4732089235
 C          8.6820327994       -2.9899539124       -0.4578763138
 C          7.8650458331       -4.0476593153       -0.0880312617
 C          6.5601546228       -3.7988331555        0.2856785749
 C          6.0603043413       -2.5055412246        0.2698690907
 C          6.8544801303       -1.4391717990       -0.1329705539
 C          4.7708751814        0.9980992403        1.2718158832
 C          3.4667276228        1.2837962281        1.6100712149
 O         -0.0014207771        0.5195651611        0.5764800769
 C         -2.7019685201       -0.0933493774       -0.2028269560
 C         -4.0105234473       -0.3738923420       -0.5341463205
 H         -8.2597237156       -5.0433508474       -0.0045009086
 H         -5.9408303369       -4.5799012797        0.7322629573
 H         -5.0698859189       -2.2960236000        0.6918988990
 H         -9.6982105912       -3.1540255779       -0.7393879919
 H        -10.4843043495        1.2668078927       -1.5054314353
 H         -9.7731998149        3.6455353272       -1.6311430179
 H         -7.4262048837        4.2336211935       -1.1010020941
 H         -5.8459088608        2.4984624094       -0.4214898890
 H         -5.5837083290        1.4371629799        1.8557050869
 H         -3.2250229210        1.9451813090        2.4454466023
 H          1.8825677422       -0.4974270568       -0.8021782163
 H          4.2215586141       -0.9982272523       -1.4087704447
 H          5.8355414822        2.4887123527       -0.4376377809
 H          7.4258106726        4.2377850797       -1.0574343905
 H          9.7896819433        3.6653263627       -1.5270466503
 H         10.5082979032        1.2889686899       -1.4047129816
 H          9.7128524589       -3.1451441916       -0.7334756746
 H          8.2573663976       -5.0522061661       -0.0822864648
 H          5.9176612629       -4.6074318505        0.5986021717
 H          5.0446734604       -2.3251305488        0.5851042413
 H          5.5867673246        1.4050015808        1.8502537530
 H          3.2319425210        1.9151421024        2.4518040599
 H         -1.8928211604       -0.5169585489       -0.7782900457
 H         -4.2353184612       -1.0177682229       -1.3714932541
