69
 energy: -117.481566504844 gnorm: 0.000047557614 xtb: 6.7.1 (edcfbbe)
C           -7.97621685278921       -3.99541576466272       -0.01736077900427
C           -6.66842019693910       -3.76362548130004        0.37202502775241
C           -6.14231054286553       -2.48499506846700        0.34039626697779
C           -6.91385439842433       -1.40887179723917       -0.09502459314374
C           -8.25150502111541       -1.65035445354372       -0.45102806998270
C           -8.77015671643514       -2.93358292541618       -0.41847733234604
O           -9.10035094187551       -0.64450833974585       -0.82172745336552
C           -8.60237113011811        0.62895928573669       -0.84714091897930
C           -9.47141815694595        1.63825728773105       -1.22505749044326
C           -9.02456438109325        2.94671599705354       -1.30797368963932
C           -7.69952233479741        3.23653579520669       -1.03224395562805
C           -6.82550589169992        2.23426504105165       -0.65237550744109
C           -7.26465364367034        0.91724054848931       -0.52825710184130
N           -6.41510978971507       -0.11328275833217       -0.14517961588687
C           -5.07013166293831        0.15150548146477        0.19093376331420
C           -4.76463113634168        0.99126697078581        1.27532180150585
C           -3.46392764455463        1.24280206591987        1.60992533215475
C           -2.40487897378350        0.67349192791285        0.85945710272451
C           -1.07288226051559        0.94697957691877        1.20618897877427
N           -0.64943307006942        1.71311097566672        2.21195491469394
N            0.64976023700808        1.71279479690697        2.21211829679750
C            1.07307336505395        0.94643572756183        1.20645203505311
C            2.40497711504393        0.67229667992376        0.85994988189943
C            2.72535209684461       -0.16780330016354       -0.23504338708464
C            4.03024779967197       -0.42603398839399       -0.55415908253424
C            5.06999564342234        0.14939739784629        0.19126888526085
N            6.41478173169132       -0.11567990146356       -0.14537767990525
C            7.26425708031165        0.91443927285690       -0.52971872919614
C            6.82573004284892        2.23176770923187       -0.65272100577256
C            7.69967109147703        3.23355227473654       -1.03407235381433
C            9.02397660363641        2.94292837573159       -1.31244600811386
C            9.47015592311770        1.63417028683699       -1.23058314855499
C            8.60119630024223        0.62537647385804       -0.85112999142923
O            9.09846545849645       -0.64840194094808       -0.82686540073037
C            8.24976524743591       -1.65377638033881       -0.45454743644597
C            8.76771011863031       -2.93731142531926       -0.42301860704754
C            7.97388827198702       -3.99866826040648       -0.02039554683983
C            6.66699087821269       -3.76609936437935        0.37152980186061
C            6.14157358061297       -2.48715956983446        0.34087901157686
C            6.91293071122991       -1.41151894310713       -0.09605820716144
C            4.76487625374587        0.98926424099652        1.27566377048443
C            3.46427363392509        1.24123406349424        1.61036010173215
O            0.00004093912437        0.41692620134154        0.52065848118337
C           -2.72561216875075       -0.16626992405089       -0.23569048807961
C           -4.03063337549462       -0.42403521117551       -0.55474992520767
H           -8.38553810868051       -4.99285948226518        0.00301193619526
H           -6.04956018883472       -4.58040000518670        0.70942721250634
H           -5.12894432225377       -2.31049916450418        0.66395928781294
H           -9.79973442047982       -3.07589598916939       -0.70504361157915
H          -10.49113270069899        1.37466763574909       -1.45555666446859
H           -9.70738969211277        3.72863858593130       -1.59983895071933
H           -7.33620924567871        4.24883056822538       -1.11654875140342
H           -5.79113049595885        2.46640075149626       -0.45693909082870
H           -5.57332275015115        1.41365270098620        1.85443507263259
H           -3.21028126269873        1.86792705957057        2.45045126083717
H            1.92225388330888       -0.59178476946051       -0.81757397262489
H            4.27520573689208       -1.05615058437162       -1.39761376299271
H            5.79188155986802        2.46455647189015       -0.45530590297221
H            7.33684196247861        4.24609170600615       -1.11750062065326
H            9.70672233813723        3.72445103324844       -1.60556987656999
H           10.48924365814666        1.36995841888915       -1.46312938216851
H            9.79663791136050       -3.08025728615390       -0.71159735840198
H            8.38264011599319       -4.99636325706757       -0.00083641121650
H            6.04830957115118       -4.58250055281485        0.71016810887769
H            5.12892486004777       -2.31203557585446        0.66635707233432
H            5.57374539385110        1.41140532808843        1.85470809248383
H            3.21089395280019        1.86648873259101        2.45087040165984
H           -1.92270502831272       -0.59039224570187       -0.81838502065937
H           -4.27584429152039       -1.05387167610058       -1.39833970545732
