69
 energy: -117.554485812450 gnorm: 0.000063970782 xtb: 6.7.1 (edcfbbe)
C           -8.09519241956397       -3.72474056015041       -1.14276227637674
C           -6.80589965069169       -3.68134728530320       -0.65263244795030
C           -6.22918838395088       -2.46999777126053       -0.30215458150191
C           -6.92969880668545       -1.27924433847017       -0.44786448342173
C           -8.25077981015789       -1.33845966688886       -0.91121038807493
C           -8.82031975347508       -2.54855852571997       -1.26169600823258
O           -9.04326980235439       -0.22409368944165       -1.02335841373516
C           -8.49384413457491        0.98239032019106       -0.66863815492637
C           -9.30097372977505        2.09774581488425       -0.79609666672757
C           -8.80795595194790        3.35779387956329       -0.49217145268871
C           -7.49810750316884        3.49305428982492       -0.07946462031647
C           -6.68524011892636        2.37744726469573        0.05229134299099
C           -7.17365033461206        1.10476659399496       -0.21544773620867
N           -6.38023722027790       -0.04164964365056       -0.09951252484047
C           -5.04856298692182        0.05367854917961        0.34562370481097
C           -4.76906358956442        0.53911976867332        1.62373781113539
C           -3.46560915921467        0.65140840534640        2.05444294105882
C           -2.41683243603813        0.27840231991095        1.21127755804609
C           -1.05803976644685        0.42867784074683        1.66710029162391
N           -0.66846509976456        0.87697403175016        2.82664587292064
N            0.66771914410068        0.87667398616609        2.82704287017954
C            1.05778281152957        0.42818169950247        1.66773875514979
C            2.41678049535042        0.27749118847829        1.21265507168777
C            2.69574647177860       -0.21923208400037       -0.06079342898597
C            4.00175711135137       -0.33023276563245       -0.48852387737304
C            5.04883850829607        0.05324673810743        0.34791824941881
N            6.38065790050236       -0.04103914205801       -0.09703943607959
C            7.17256428499049        1.10627850129679       -0.21443387799043
C            6.68292210737439        2.37852992599996        0.05309166558697
C            7.49431306742493        3.49503378680896       -0.08015961382775
C            8.80388330634606        3.36110723282280       -0.49417330278936
C            9.29810421530298        2.10146531526413       -0.79783142233600
C            8.49245888311118        0.98521190391671       -0.66885061158574
O            9.04300885001061       -0.22083073529522       -1.02334508686516
C            8.25192662451288       -1.33606678210866       -0.90989433213503
C            8.82251209014045       -2.54568757908185       -1.26032047248629
C            8.09882315347610       -3.72263057117584       -1.14011973617271
C            6.80993191907616       -3.68046696672502       -0.64882132274999
C            6.23216185836543       -2.46959849062813       -0.29841810187298
C            6.93120829533167       -1.27813846490474       -0.44535734804989
C            4.76879495970245        0.53909704523270        1.62575358672723
C            3.46516956677652        0.65113748775645        2.05601603204166
O            0.00003765120089        0.11996151422493        0.87813280588525
C           -2.69522796614059       -0.21752500010644       -0.06260502913324
C           -4.00106845917258       -0.32872272712683       -0.49080192253737
H           -8.54687027254797       -4.66362307659254       -1.42127325933211
H           -6.23602133584630       -4.58987856577868       -0.53307382382183
H           -5.22765049685442       -2.45344094639398        0.09817772480994
H           -9.83712408189335       -2.54850970374345       -1.62042639329635
H          -10.31268751809773        1.95791801369753       -1.14173482333649
H           -9.44573360574220        4.22171954007858       -0.59178978742919
H           -7.09229577445750        4.46831829273164        0.14084278994620
H           -5.65850203236609        2.50197498274873        0.35834354926191
H           -5.58513301043435        0.82126406082310        2.27197737322212
H           -3.23072095372127        1.02181642065989        3.03924443685058
H            1.88414386018713       -0.50438996379337       -0.71300801743949
H            4.22226148200758       -0.70237453585941       -1.47807422759271
H            5.65636059485575        2.50203160559934        0.36014250513067
H            7.08755190607700        4.46993463453731        0.14000567787819
H            9.44050469765905        4.22574445908671       -0.59500445672274
H           10.30962387662496        1.96264894965221       -1.14444372518419
H            9.83897077871406       -2.54466640229251       -1.62002916819098
H            8.55131215147400       -4.66113645867537       -1.41858639061081
H            6.24121268639814       -4.58959515092497       -0.52828351970625
H            5.23095984945915       -2.45392605844720        0.10280110436116
H            5.58457654846459        0.82188966390959        2.27407217887660
H            3.22984601161302        1.02198740618842        3.04054752254019
H           -1.88332456726774       -0.50200763061681       -0.71474096855381
H           -4.22113298694734       -0.70031415116522       -1.48065618294327
