69
 energy: -117.554583773218 gnorm: 0.000106942862 xtb: 6.7.1 (edcfbbe)
C           -7.87839740931209       -4.03623959238517       -0.03629282967434
C           -6.58137585032985       -3.78491800403002        0.36231526449565
C           -6.07618043796199       -2.49393813877068        0.33297134038674
C           -6.85708641603598       -1.43294786548115       -0.10813335358458
C           -8.18439180883823       -1.69368114226352       -0.47386195125543
C           -8.68269497594533       -2.98311454740257       -0.44516443431081
O           -9.05248893483087       -0.70205108952947       -0.85496454263293
C           -8.57664248778931        0.58494811978067       -0.87048750683505
C           -9.46272277577097        1.57346392236781       -1.25704935791026
C           -9.04827990135547        2.89455819508137       -1.33444639945346
C           -7.73784001663730        3.21331929207323       -1.04193445398163
C           -6.84601742894236        2.22610874958823       -0.65109215635785
C           -7.25418410359305        0.90333825212342       -0.53423536075391
N           -6.38040755130908       -0.11861943680210       -0.14783707836460
C           -5.04861751120390        0.17077426062139        0.20199731941012
C           -4.77135565681860        1.01272324728025        1.27987161707813
C           -3.46776016073676        1.29625013935395        1.62251910546824
C           -2.41618210863956        0.73869037951109        0.89229861319998
C           -1.05789627643436        1.04129451239497        1.26650440728519
N           -0.66888719135326        1.81779623659267        2.23760972080082
N            0.66743926077278        1.81740246100644        2.23894798176977
C            1.05800892408976        1.04112834754309        1.26836886786365
C            2.41675181217602        0.73879841651711        0.89572610992154
C            2.69324029034540       -0.09486091312975       -0.18821222632432
C            3.99932292372733       -0.37384011965117       -0.52994311349866
C            5.04978593239716        0.17194874504968        0.20650134302464
N            6.38158149500357       -0.11721038764771       -0.14312471014275
C            7.25849551697420        0.90566063796552       -0.52005581442241
C            6.85576176490537        2.23146393753171       -0.62048278003502
C            7.75085277776913        3.21940491761406       -1.00186661657483
C            9.05926671375966        2.89866084269952       -1.30120864150091
C            9.46818934165594        1.57500982703073       -1.24041246953333
C            8.57878414721175        0.58579471962595       -0.86334975953089
O            9.04933217058032       -0.70327946174830       -0.86459428051395
C            8.17767093244193       -1.69595443873539       -0.49477105043394
C            8.67000302255536       -2.98798634443419       -0.48509665631358
C            7.86204040641164       -4.04279718432792       -0.08803466087281
C            6.56756922596723       -3.79078472690431        0.31838518895307
C            6.06834561510506       -2.49721211222171        0.30796330286128
C            6.85261014962047       -1.43405928611506       -0.12190108781211
C            4.77158492403193        1.00468413054449        1.29131046300431
C            3.46770151018926        1.28791352016674        1.63322547447815
O            0.00056672976153        0.51231796759931        0.60534834123135
C           -2.69173698601934       -0.10379475198751       -0.18503980629657
C           -3.99761646032419       -0.38358054540544       -0.52716417428114
H           -8.27475510081135       -5.03909585542341       -0.02024989489897
H           -5.94938062634180       -4.58969325492425        0.70496974173930
H           -5.06702641937648       -2.31064508206882        0.66685580322390
H           -9.70740911979296       -3.14018858958986       -0.74159459016886
H          -10.47311463471436        1.28566248056872       -1.49969259799688
H           -9.74731724824180        3.65930528859078       -1.63373896620571
H           -7.39329180101396        4.23304074515714       -1.11807610784469
H           -5.82058879303619        2.48874743412029       -0.44396762129626
H           -5.58870795221194        1.43145469521155        1.84765946042666
H           -3.23479953464084        1.93857615721656        2.45639397893594
H            1.88011360197944       -0.51237165378809       -0.76257957212517
H            4.21828444245402       -1.01015494246164       -1.37461198030962
H            5.83197588632445        2.49613696421953       -0.40797128461983
H            7.41044352785165        4.24138390611657       -1.06530410565392
H            9.76080100286210        3.66394655759651       -1.59314470173203
H           10.47667292183023        1.28561416347952       -1.48899302445860
H            9.69301663050730       -3.14572204183281       -0.78696254634809
H            8.25361906554587       -5.04765245527129       -0.08708688576148
H            5.93291683007929       -4.59711963622857        0.65234561664539
H            5.06117719374644       -2.31377920246157        0.64771460839356
H            5.58834347706059        1.41618187325129        1.86520994569711
H            3.23403491286876        1.92334323365523        2.47218775561390
H           -1.87806404742275       -0.52793621953491       -0.75377755431274
H           -4.21594903512488       -1.02723368132630       -1.36642902890721
