69
 energy: -117.481567019272 gnorm: 0.000082160403 xtb: 6.7.1 (edcfbbe)
C           -7.97831325645609       -3.99204470384940       -0.13402665360006
C           -6.67259154244962       -3.77296661401707        0.26945479560599
C           -6.14500038866284       -2.49458329406054        0.27724147529956
C           -6.91288813798617       -1.40564932582670       -0.13201670661804
C           -8.24872450297891       -1.63529241388554       -0.50239783638692
C           -8.76885063611037       -2.91831146338550       -0.50936431295411
O           -9.09430194468261       -0.61827580783325       -0.84931271150230
C           -8.59442912707029        0.65464583852780       -0.83707761345186
C           -9.45978905826491        1.67520945614843       -1.19254165325099
C           -9.01058151357729        2.98471750178638       -1.23731980072886
C           -7.68676957167262        3.26484766492285       -0.94613462806575
C           -6.81644259733799        2.25125577956564       -0.58850636038314
C           -7.25821381383088        0.93205935613724       -0.50268253851917
N           -6.41241591856541       -0.10985266073611       -0.14281173069584
C           -5.06837932592995        0.14355156195666        0.20547813266681
C           -4.76556291327368        0.95383703111773        1.31279024419326
C           -3.46568009111871        1.19639049732127        1.65719252168814
C           -2.40491254249787        0.64744510219785        0.89417089406225
C           -1.07341176106670        0.91306728119155        1.24869374515103
N           -0.65001489734307        1.65528905537008        2.27225186489826
N            0.64925108304157        1.65638783844495        2.27136511365969
C            1.07250828387715        0.91471174080471        1.24734889537689
C            2.40407671311068        0.65047448233929        0.89184967274331
C            2.72230068814755       -0.16417393771510       -0.22283315215881
C            4.02656802518546       -0.41263064545651       -0.55207868343175
C            5.06758735666975        0.14829265244010        0.20247921639370
N            6.41182552494335       -0.10461191987813       -0.14576567612278
C            7.25512119605055        0.93680893828179       -0.51268406605945
C            6.81034917902847        2.25444259750523       -0.60638215794916
C            7.67808409737861        3.26762729970333       -0.97140924376179
C            9.00219465441125        2.98849822507094       -1.26220136603308
C            9.45442120426708        1.68032028078341       -1.20920603155720
C            8.59170228583470        0.66017663984363       -0.84622094633900
O            9.09448725450751       -0.61167104886457       -0.85000999328600
C            8.25142319743831       -1.62824559251677       -0.49566183825581
C            8.77457073999880       -2.91004569485115       -0.49361545449249
C            7.98652774184815       -3.98299367551970       -0.11082372795931
C            6.68015828351524       -3.76425719107387        0.29072602610907
C            6.14956902808484       -2.48708141315626        0.28962421970032
C            6.91510360981140       -1.39919382218006       -0.12669519624454
C            4.76462201992199        0.96249249785490        1.30683609456835
C            3.46467338338056        1.20398050023664        1.65179347759390
O           -0.00046381697995        0.40059731146743        0.55001933019312
C           -2.72296260336561       -0.16386244111469       -0.22301165451735
C           -4.02710909049200       -0.41286027374650       -0.55215324747654
H           -8.38873207056530       -4.98919315433970       -0.14446919032131
H           -6.05658487489609       -4.59973997327669        0.58715015782907
H           -5.13337079981015       -2.33049073468986        0.61151850232921
H           -9.79685066419601       -3.05124761103339       -0.80592062843747
H          -10.47848787530041        1.41960392165463       -1.43613350735597
H           -9.69052403005628        3.77535043539104       -1.51194282373230
H           -7.32144824964136        4.27844123582275       -1.00097606527081
H           -5.78289095862887        2.47639242793342       -0.38094479971677
H           -5.57572681857873        1.36081182317347        1.90081878779466
H           -3.21413028011063        1.79916867421425        2.51450811930548
H            1.91800391359212       -0.57643213054711       -0.81206195492851
H            4.26989651116084       -1.02310884635702       -1.41030961389447
H            5.77652162411451        2.47855643816004       -0.39904947861552
H            7.31047799948905        4.28003324126825       -1.03249119095642
H            9.68005219846219        3.77880075026131       -1.54286370668477
H           10.47349281728739        1.42543945016446       -1.45199878497916
H            9.80291287715807       -3.04263663189842       -0.78913969064317
H            8.39936455634355       -4.97919182615745       -0.11409182953462
H            6.06601749693979       -4.59028816455502        0.61392016558201
H            5.13743521011885       -2.32301260027792        0.62239684107743
H            5.57474251525742        1.37324936957463        1.89228004181847
H            3.21295497965940        1.80942949533059        2.50716860300689
H           -1.91856487566367       -0.57269978861182       -0.81448928241323
H           -4.27023332672080       -1.02022786121311       -1.41265003136696
