129
 energy: -199.100959127076 gnorm: 0.000058863001 xtb: 6.7.1 (edcfbbe)
C           -0.70733772593838        6.18362082944861        2.21602932378523
C           -0.89321642196805        5.06601586740715        1.17904245360951
C            0.11804086095924        5.27882753359272        0.04387447907551
C           -0.72275610409452        3.72842785600943        1.88656198155237
C           -1.69847623154714        3.34742940468927        2.81652303482919
C           -1.68296078333577        2.09771823862488        3.38499172843421
C           -0.67705361339761        1.18742324028832        3.04908425002492
C            0.37833437567443        1.56526092467799        2.20044762021500
C            0.30406272781923        2.84483987615774        1.62615332455797
B            1.48001392510060        0.51220073714713        1.94934289063931
C            2.87535104395035        0.58159397932181        1.28108230706555
C            3.55776449030548        1.74454270291025        0.89890621616528
C            4.80272392714395        1.71436144920292        0.31264548918226
C            5.42622762088231        0.48853870340996        0.07950606106371
N            6.71283984280778        0.44595268438088       -0.52788062914640
C            6.80274232701910        0.34657281317739       -1.90639293163638
C            5.63367864323745        0.28883470376588       -2.67116851393825
C            5.68886923786903        0.18868956371766       -4.04571806207527
C            6.91551734637497        0.14484140145453       -4.68378811600562
C            8.07310470633990        0.20465983612959       -3.92896012918714
C            8.04738340603784        0.30628465501416       -2.54460164410152
C            9.35337922117827        0.36949825340023       -1.77379429883287
C           10.14509240765160        1.60459132247271       -2.24328275807298
C           10.15553550893774       -0.91481591327273       -2.05643016055091
C            9.12182685882234        0.48023582145629       -0.27772838001864
C           10.21097110172917        0.55377086880922        0.57993441834393
C           10.06219779486291        0.65441961739207        1.95147050883822
C            8.78951218633520        0.68341185708742        2.49290172478855
C            7.68922932631395        0.61300895826769        1.66421955959413
C            7.83769029016687        0.51221453365641        0.27739208887072
C            4.80070496882672       -0.68247062148538        0.45942898789698
C            3.54426782837717       -0.63951476225182        1.06836681352891
O            3.05916636934385       -1.85909046468337        1.43082506763248
C            1.92411405485936       -1.98867819436306        2.16443852035679
C            1.58066565159548       -3.26353852581662        2.59969191934973
C            0.44133753256927       -3.42986317875865        3.36944310452485
C           -0.35959100236479       -2.35432118605745        3.70876722292495
C           -0.02208337939252       -1.08503985468897        3.24931156691155
C            1.12399886710132       -0.87691702678687        2.46650339931085
O           -0.83322500664346       -0.05603260327063        3.58918026310144
C           -2.28275124534845        5.06961848956530        0.55338737142395
C           -3.07543337157050        6.21213310105557        0.45153385128621
C           -4.31677110378012        6.15110664490853       -0.14403124659871
C           -4.81864321494806        4.93728915117201       -0.61620049217586
C           -4.06183210659592        3.75587443991291       -0.50551165372314
C           -2.78066315124342        3.88648575352911        0.03823263642533
B           -4.74329119792511        2.43452136423655       -0.92277632422352
C           -4.34900308755525        0.94673622000429       -0.74552102761360
C           -3.24128441573976        0.45121805981645       -0.04220996296656
C           -2.97369739872113       -0.89327897044128        0.07006377409176
C           -3.83108821880722       -1.82341903806085       -0.51974398870130
N           -3.56554805101862       -3.21218605960431       -0.39382476950963
C           -3.75503882388394       -3.82082687121055        0.83882767190253
C           -4.28246341634349       -3.08239657285327        1.90297498413120
C           -4.47350454812650       -3.65622393436431        3.14236459880222
C           -4.14557741166982       -4.98482965372946        3.34434883967851
C           -3.65189699467001       -5.72518985497131        2.28598422899451
C           -3.45540851216877       -5.17462713592482        1.02646366062041
C           -2.95856178684349       -6.05759984762935       -0.10295631296592
C           -1.58335612546629       -6.63610011457294        0.28022787177478
C           -3.97579023928579       -7.19506490155645       -0.31504540467318
C           -2.81022761347858       -5.28448589207750       -1.40006983290454
C           -2.35996526180265       -5.94201525152298       -2.53727530758359
C           -2.17029203995767       -5.28686961332661       -3.74010456982758
C           -2.41795599927116       -3.92788020926708       -3.81396565935408
C           -2.86902282904707       -3.25061610412018       -2.70040895382417
C           -3.09178279263636       -3.91671997128427       -1.49111984206150
C           -4.94614466507218       -1.38186290595390       -1.20608609520305
C           -5.20661219997906       -0.01387881610547       -1.31700771844632
O           -6.34705758807463        0.27918637423894       -2.00107071552708
C           -6.82402925022013        1.54674303280485       -2.09548117394492
C           -8.05078378782126        1.72593959543880       -2.72443397837468
C           -8.57783535990500        3.00270850692158       -2.82236205199985
C           -7.90904216200562        4.09786910789884       -2.30494398015794
C           -6.67662306260334        3.91233567490500       -1.68572156668241
C           -6.10530931178861        2.63431827328063       -1.57751916056661
O           -6.06142300568298        5.00605754679196       -1.17679817053333
H           -1.51360412039012        6.18240360174059        2.94491148266674
H           -0.66961651520092        7.15776395851089        1.73518868739224
H            0.23187706372472        6.03208856451859        2.74480357299475
H            1.13065795969776        5.34534068232368        0.43454532563010
H           -0.11006213782441        6.21113111447538       -0.46920497743255
H            0.06245035391186        4.47197297386831       -0.68299395858210
H           -2.50296390313372        4.02595444487274        3.05737570585805
H           -2.45782619615819        1.78253787937876        4.06727850391745
H            1.07071296726555        3.11083387613520        0.91944369450655
H            3.09702424589926        2.69946472635217        1.09252236792047
H            5.30781508661890        2.62645896457666        0.03188110965517
H            4.67419250189473        0.32338303777872       -2.17811941993565
H            4.77194941539517        0.14488548220817       -4.61534850167948
H            6.97277566154468        0.06555101777423       -5.75919553035385
H            9.02307150424285        0.17067107666132       -4.44086338977736
H           11.09865327695300        1.67295781517273       -1.72710697413466
H            9.57649194529307        2.50981860546133       -2.03653910601651
H           10.33887145197909        1.55792898028992       -3.31132847389086
H           10.36995197030641       -1.01227529062153       -3.11713744370831
H           11.09890645904085       -0.90952611707043       -1.51738432410782
H            9.58416571438114       -1.78605842622425       -1.74007404600589
H           11.21021763632805        0.53136128137297        0.17172632420274
H           10.93211438340861        0.70913857784958        2.58880204768570
H            8.64937650446088        0.76060742479630        3.56133357237734
H            6.69876131511474        0.63575425421359        2.09245509662345
H            5.27818651270682       -1.63856179174476        0.30653140123372
H            2.20975688311346       -4.10048103277544        2.34079523843662
H            0.17214645178015       -4.41725848482387        3.71241384427378
H           -1.24477186219784       -2.48358806598831        4.31049937267688
H           -2.72614630726037        7.16009719865597        0.82866976486583
H           -4.92727450518798        7.03573584179727       -0.24741867379280
H           -2.15356153772684        3.01132643087451        0.06297383989195
H           -2.57880995207081        1.14694163888564        0.44527116749813
H           -2.11105418650522       -1.24412585635441        0.61680543911666
H           -4.55006897896905       -2.04786814343919        1.75334188617516
H           -4.88051737503494       -3.06216654107753        3.94781533949901
H           -4.28435282494908       -5.44518429181274        4.31122666432919
H           -3.41892551209056       -6.76628847011591        2.45137177833217
H           -0.86326040847714       -5.82863323591713        0.40148057133096
H           -1.64127252573628       -7.18904779562771        1.21356846336009
H           -1.21763726198013       -7.30828191443758       -0.49104320009905
H           -3.65752748084042       -7.85563767943456       -1.11675089597584
H           -4.09021274527863       -7.78696291962228        0.58877274022392
H           -4.94694838510575       -6.77869363855159       -0.57806957693088
H           -2.14586272248881       -6.99899410132186       -2.48859718307197
H           -1.82335211028454       -5.83077306121119       -4.60589781123938
H           -2.25863844690036       -3.39022237674151       -4.73735124467810
H           -3.04815048559060       -2.18849290075529       -2.76421360513652
H           -5.63065468321855       -2.08393415263950       -1.65789074684495
H           -8.57595944390190        0.87054421444028       -3.11892802283664
H           -9.53166196587912        3.14550065830224       -3.30726830636840
H           -8.32315909114177        5.09131118705185       -2.37424221135583
