129
 energy: -199.022056876548 gnorm: 0.000059590203 xtb: 6.7.1 (edcfbbe)
C           -5.79927735554259       -0.22561362148750       -4.92005468838517
C           -4.71745472351665       -0.47089784452879       -3.85881602643639
C           -3.69788586831304       -1.45529974014636       -4.45783610630797
C           -4.07555700199696        0.85060664637467       -3.44913267601024
C           -4.86834557619310        1.98120460485307       -3.24570014936975
C           -4.31638227812341        3.15444930726325       -2.77107963214102
C           -2.96519522309932        3.21939921001815       -2.44457063059378
C           -2.11896514434329        2.10951380947134       -2.64095174108750
C           -2.72233390775632        0.95607382157217       -3.16249295089394
B           -0.66247467912867        2.23684750996186       -2.14272570384077
C            0.54250181377804        1.28148905330037       -2.17564123732502
C            0.66191641584828        0.09712512119766       -2.92900446311454
C            1.70786015149340       -0.78277372741453       -2.77269154052144
C            2.70569404384463       -0.51506893927038       -1.83662584922303
N            3.74277979749472       -1.46232749169915       -1.61928478362725
C            3.41902639241248       -2.66414092632666       -1.01966980089871
C            2.11663269090164       -2.87206184271242       -0.54178681327292
C            1.75486100151840       -4.06817286080991        0.03550609077956
C            2.69122687139687       -5.08294803207967        0.16296861552962
C            3.98538879614352       -4.87205825373933       -0.27708611624845
C            4.37849858901270       -3.67677330012193       -0.86441802404768
C            5.81208613812015       -3.50306783910189       -1.31763071913341
C            6.12093990061600       -4.56700798950399       -2.39037045630568
C            6.74432678671436       -3.68798374531042       -0.10506339753514
C            6.05167037058875       -2.13416076371460       -1.91824202365709
C            7.31989660381777       -1.80084375912972       -2.37505540116618
C            7.58740004568314       -0.58398219012251       -2.97484466627828
C            6.55947014127098        0.33041284029987       -3.14690407121690
C            5.29213417225089        0.02849329104074       -2.70195936926249
C            5.02155899398385       -1.19139100001428       -2.06464022081204
C            2.67742285237585        0.68420982470259       -1.12860444920617
C            1.63188966397733        1.57973117501417       -1.32066225704875
O            1.74896897124770        2.73863105931786       -0.60101339333616
C            0.80740173007601        3.72657118589503       -0.67651677057984
C            1.08714236704302        4.92444038063903       -0.03418102821374
C            0.14687928291860        5.94343674755874       -0.06276810662002
C           -1.07074747213915        5.76803498842255       -0.69883788224979
C           -1.34012664780312        4.55945162112805       -1.33206029483804
C           -0.39646239517060        3.52263945481644       -1.36243451879291
O           -2.56078894903312        4.41840499033450       -1.91768848038459
C           -5.27223468402209       -1.10744160298300       -2.58599262497243
C           -6.50380003392975       -1.75450431644593       -2.52072532502146
C           -6.93334570386829       -2.32432259292915       -1.33435812674029
C           -6.14196264186188       -2.26771085561655       -0.19086639144089
C           -4.87003191047284       -1.66214115596456       -0.22641982637656
C           -4.49086246178207       -1.08598405994213       -1.44164993374572
B           -4.05638146766454       -1.62737571569944        1.08151767304539
C           -2.64108421949288       -1.12610760845334        1.41095529056654
C           -1.64010408866655       -0.77309282166068        0.48881203725888
C           -0.45692563186836       -0.18624984774321        0.87028835287192
C           -0.21894368829453        0.08180569911398        2.21477940714944
N            0.94342000790362        0.82125961210710        2.57859494060338
C            0.81680610754007        2.17470419397137        2.81879503953793
C           -0.45140384359144        2.77182094944325        2.77702796340142
C           -0.61113710730324        4.11274746484728        3.04127478053293
C            0.49388023101050        4.89220649819649        3.34584887748202
C            1.74969476222495        4.31446156920023        3.36090706732973
C            1.94251823106976        2.96507145888464        3.09899410133003
C            3.34596960350189        2.39826046983533        3.09543937686549
C            4.16060603608890        3.13319138349130        2.01266258363419
C            3.98046269809016        2.62079563649071        4.48293226126755
C            3.35395824852939        0.91459027934654        2.79739493759664
C            4.55791956891854        0.22411024727393        2.76859896873528
C            4.61477044353474       -1.13908729337789        2.54284059159794
C            3.44159201761064       -1.84979643800269        2.34300463126042
C            2.23353916204142       -1.18984615091906        2.35497357786440
C            2.17076819445824        0.19425738635526        2.56944603050764
C           -1.13441870563249       -0.33917634976013        3.17428766654553
C           -2.31640704410040       -0.95659955789444        2.77632462967683
O           -3.11824061416731       -1.36147257663269        3.80876266680443
C           -4.31671415241450       -1.98030898466343        3.59039587307770
C           -5.00761520372175       -2.44995675374936        4.69991706940045
C           -6.24229199446532       -3.05648993786874        4.52070770217591
C           -6.79980819464059       -3.18283613568839        3.25795448928861
C           -6.10285339980116       -2.70277654875810        2.15461322286938
C           -4.83969483882474       -2.10920994197080        2.29679017229000
O           -6.69355986995237       -2.82902963964241        0.93280417476726
H           -6.67040664270840        0.27148679818082       -4.50290843972693
H           -6.12269667254601       -1.16662834656460       -5.35901813025025
H           -5.39266757945135        0.39739186348046       -5.71464065364880
H           -3.17111702565756       -0.99529527581474       -5.29150172119740
H           -4.22005323094437       -2.33841518697289       -4.82110031886160
H           -2.97832089581832       -1.78548168165278       -3.71384714282465
H           -5.92888256088375        1.95388620202564       -3.43715768924738
H           -4.92999961197939        4.02923703772458       -2.61124065464364
H           -2.08671890469730        0.09960258437296       -3.30409415175087
H           -0.09587106916908       -0.12301442355660       -3.66312065203375
H            1.75997699281012       -1.68851528392746       -3.35938297953654
H            1.38828765839172       -2.08223871456040       -0.62078045059514
H            0.74427669710627       -4.20569469976706        0.38998190194251
H            2.41809988798635       -6.02654050665481        0.61046913799015
H            4.70483927749358       -5.66725261235604       -0.15855488826779
H            7.14351326175314       -4.47313314784269       -2.74392237143369
H            5.45079174313515       -4.44467971689950       -3.23941511455255
H            5.98813006151348       -5.56755495296450       -1.98933256158365
H            6.58852782026372       -4.65698923496995        0.35948767064178
H            7.78568384941155       -3.61916631099310       -0.40487017115249
H            6.54491735798592       -2.91417294112248        0.63257622042286
H            8.12567491369676       -2.51029210386743       -2.26911418983627
H            8.58541895485886       -0.35659251381725       -3.31707254121475
H            6.74387874930042        1.27684416789941       -3.63256819422796
H            4.49307728936022        0.73632784804830       -2.85240902533205
H            3.45733407535765        0.92212489031409       -0.42171318483771
H            2.02777096667165        5.05005664558946        0.47681209416594
H            0.36299815288193        6.88129191364386        0.42509331943218
H           -1.81577536145729        6.54883710249233       -0.70909652935518
H           -7.14663244443981       -1.81699394624289       -3.38416442759805
H           -7.89661004794003       -2.80999717666459       -1.27414780503838
H           -3.54452868359640       -0.57342084512653       -1.47324274981409
H           -1.80704655078882       -0.96250385952525       -0.55811989115823
H            0.27590012354107        0.10604746815442        0.13563669092482
H           -1.31254406185350        2.17194399034587        2.52900511206899
H           -1.59725413419529        4.55027457891294        3.00530127091941
H            0.37809596305737        5.94350366978226        3.55905073671713
H            2.60124173495770        4.93965131625224        3.58043746783358
H            3.65940955828619        3.03981400385796        1.05122859801164
H            4.25274268632663        4.18863454015785        2.25239548659137
H            5.15972384408172        2.71527054260333        1.92800075440470
H            3.41603564168517        2.07966348375778        5.24022334897515
H            5.00705534512550        2.26703180518873        4.49880927964256
H            3.97958706746354        3.67506946672900        4.74292922072870
H            5.48039188113311        0.75899195604854        2.93373696666593
H            5.56811829960025       -1.64454626204925        2.53901579763430
H            3.46677958351072       -2.91598348685933        2.18070535544349
H            1.31861626170333       -1.74070888210069        2.20761301850063
H           -0.94774886297697       -0.18073296984616        4.22571199735208
H           -4.57889221703193       -2.33569464043902        5.68358414014852
H           -6.78129319682270       -3.42800801609840        5.37897507328809
H           -7.76605034350130       -3.64252658743329        3.11765075749892
