129
 energy: -199.100373245948 gnorm: 0.000047521297 xtb: 6.7.1 (edcfbbe)
C            0.64445742104429        0.11084387351673       -0.92631275858773
C            0.00306593435085        1.15312368916373        0.00245188611815
C           -0.67803841442674        0.41196808357760        1.16318557507974
C            1.01414681935116        2.10892849653850        0.61736742743433
C            0.53599291538564        3.25198709292772        1.26695213803076
C            1.40363430448985        4.14924417751035        1.83984911268619
C            2.78169302249111        3.92186456229371        1.79497353247099
C            3.30332412834523        2.76232283925530        1.19379085899520
C            2.37610781886614        1.89091333318907        0.60061950344739
B            4.83824892784052        2.57797332000919        1.23921335928625
C            5.77658278443630        1.40922161822872        0.84039747000894
C            5.38933818095049        0.11833127696863        0.45406116803017
C            6.29416417277387       -0.85474902528876        0.09537481339039
C            7.65893352984213       -0.56711177304203        0.10731994293302
N            8.60397542509612       -1.56067876210763       -0.27243769413512
C            9.21297479845882       -2.32268058557534        0.71125032465601
C            8.87144343623694       -2.12157948254012        2.05223573442060
C            9.46228169323101       -2.86190020951082        3.05477653153569
C           10.40488511299074       -3.82311498278282        2.73645214893265
C           10.73554775969183       -4.03172196236364        1.40974120007505
C           10.15736896732792       -3.30099244436565        0.38061276364410
C           10.55848387782518       -3.58542845530252       -1.05528251125526
C           10.22818006615445       -5.05498059144316       -1.37792388715206
C           12.07099424517556       -3.33527204082165       -1.20494088071588
C            9.81987073721562       -2.69286991589052       -2.03571662122821
C           10.06743885775625       -2.81831397512687       -3.39600092157290
C            9.43090093122523       -2.02780696080382       -4.33569839126235
C            8.52030951403075       -1.07594991396455       -3.91315301883092
C            8.25615207757707       -0.92863343166746       -2.56749146276992
C            8.89306670600183       -1.73195303242255       -1.61647134542902
C            8.08967086208598        0.68283801179827        0.50499998953634
C            7.16266379936242        1.65700335348076        0.88385081849499
O            7.72743392906029        2.82588739555697        1.29227572771597
C            6.98370277175069        3.84697636866982        1.78750816266429
C            7.66549722010543        4.95176976657905        2.28447112000446
C            6.94361202222460        6.01117795525393        2.80765217564677
C            5.56086746549345        5.99055139857363        2.83696428743900
C            4.88596714257909        4.88665697306805        2.32401572908176
C            5.58192710210665        3.78997966074927        1.79204748745937
O            3.53386301534871        4.90771567670449        2.36423989548698
C           -0.96926392731928        1.95927898467383       -0.84551978524474
C           -0.44852538278073        2.90830865008668       -1.73144830893863
C           -1.28038657239675        3.65697351780549       -2.52742559569028
C           -2.66324564389529        3.46281332449888       -2.47815512313983
C           -3.22612800824534        2.48388768903135       -1.63954155531381
C           -2.33537375606493        1.76902592281047       -0.82316258824065
B           -4.76070247338096        2.30231068635355       -1.70572860731726
C           -5.73180603079117        1.26248025298283       -1.08761723671286
C           -5.37987338069808        0.09651850900621       -0.39307753334251
C           -6.31315525435710       -0.76394938698703        0.13886902788390
C           -7.67189794618448       -0.48496117460887       -0.00670743600575
N           -8.64676098808082       -1.36131473278314        0.54735008316183
C           -9.04538767972289       -1.17578842047413        1.86076717370847
C           -8.48181160823000       -0.14068648040040        2.61318567284051
C           -8.85599704513173        0.06934096321120        3.92398865491459
C           -9.80291521935780       -0.75193335218268        4.50936177587010
C          -10.36386015903747       -1.77434611910891        3.76555515110114
C          -10.00641863767062       -2.00851205358807        2.44469785086602
C          -10.66215471581658       -3.14508708162127        1.68183546981119
C          -10.35646598948074       -4.46845707665391        2.40857279672053
C          -12.18239241825600       -2.90048911174729        1.64057510116816
C          -10.14526444200482       -3.24231909858807        0.25800908480704
C          -10.63887118291827       -4.22995239871661       -0.58356351316774
C          -10.20091921108960       -4.37177572911822       -1.88789404399773
C           -9.23728404050264       -3.50708482005885       -2.37527290627928
C           -8.72927716054706       -2.51649862117169       -1.56108216389661
C           -9.17561323455203       -2.36727429015307       -0.24435639413345
C           -8.06744097284243        0.63833807711167       -0.70483211192211
C           -7.11104708350107        1.49620268752622       -1.25370020369541
O           -7.64127352140456        2.53922372666653       -1.94847590051502
C           -6.86267308825889        3.41321372815917       -2.63457417036964
C           -7.50707983556333        4.37243242919517       -3.40720451397474
C           -6.74877984927454        5.27783413106276       -4.12999883634241
C           -5.36647941276001        5.24591360970833       -4.09125670278617
C           -4.72975276360504        4.29015029886383       -3.30502485175461
C           -5.46297304544329        3.35216646060823       -2.56164830012389
O           -3.37705770479460        4.29340013140512       -3.29189633514414
H            1.24517884890730        0.58879720570980       -1.69614743760173
H           -0.14020343248504       -0.46236061183751       -1.41673402791390
H            1.26550319015558       -0.58082489177317       -0.36257947901903
H            0.08425117886996       -0.03403617437273        1.79941138726989
H           -1.31658946644653       -0.38601730249256        0.79276452668590
H           -1.27000847266134        1.09234399944043        1.77009461964424
H           -0.52618366915774        3.44496318760254        1.29902768849851
H            1.04508280967784        5.04616019976759        2.32223319283341
H            2.76561560533018        1.02592937481649        0.09397677425267
H            4.34107966676268       -0.12928988105815        0.45644999068611
H            5.96364941427993       -1.84024341681408       -0.19704931467074
H            8.13348294847226       -1.37638383504766        2.30681925290735
H            9.18356917607145       -2.68619935045689        4.08368673160754
H           10.87646748528883       -4.40845294789130        3.51169204401760
H           11.46776604930626       -4.78976108731801        1.17550707579317
H           10.50837695792280       -5.29997216810511       -2.39866977820187
H            9.15933193349631       -5.22853887355385       -1.26391195578851
H           10.75805761687058       -5.72750695188019       -0.70907016018921
H           12.63743231399903       -3.96354131703526       -0.52305043787320
H           12.40077446538625       -3.54846986046286       -2.21797954296617
H           12.29814879996417       -2.29400945056525       -0.98185540491705
H           10.77899575426701       -3.55372803521135       -3.74027946465063
H            9.64712274693547       -2.15364091209351       -5.38610113795116
H            8.01467113389083       -0.44458062061625       -4.62927863088792
H            7.54841595976215       -0.18094136217613       -2.24362052771664
H            9.14253244905222        0.91834221326782        0.54288941839443
H            8.74365710493045        4.96443702285508        2.26163238421819
H            7.46976448151928        6.86817218646298        3.20008898309547
H            4.99573222669765        6.81433800669404        3.24345928052673
H            0.61826376868333        3.07097169445614       -1.77607769433487
H           -0.88942120254932        4.40926726263374       -3.19591776174565
H           -2.75686090524278        1.05388841459716       -0.13920094771831
H           -4.33591122380697       -0.14615699719428       -0.28621829690727
H           -6.01012970434574       -1.65474959327581        0.66856991068468
H           -7.74456115790949        0.50447746616850        2.16034245561578
H           -8.40664900375052        0.87555326897694        4.48548686015651
H          -10.10479347388950       -0.59872035939238        5.53470210744773
H          -11.10283376669684       -2.40608396166111        4.23509593224386
H           -9.28112171873587       -4.63706244606940        2.43506976001076
H          -10.72499088593795       -4.44353914636943        3.43036417813939
H          -10.82261003809138       -5.30717348378602        1.89892569580922
H          -12.59211798523646       -2.83350321381840        2.64464666817676
H          -12.39399096791157       -1.96753283988241        1.12053268659707
H          -12.69063881368815       -3.70662669887571        1.11873641490378
H          -11.38889305497390       -4.91408201709030       -0.21603604084599
H          -10.60778197604116       -5.15113609706376       -2.51486471745085
H           -8.87788717246992       -3.60155300517833       -3.38974532136112
H           -7.97570363793067       -1.84645890511105       -1.94583655891829
H           -9.11412842975226        0.86083833851872       -0.84756923718666
H           -8.58497026955460        4.39299624786649       -3.43685644020952
H           -7.24557235831354        6.02099047091208       -4.73516852800584
H           -4.77278699439778        5.94948704311576       -4.65321469127772
