  129
       -199.03187645
 C         -0.7536837943        6.1263987024        2.3013803345
 C         -0.9288453778        5.0618314337        1.2100413784
 C          0.0845320298        5.3343248798        0.0911517864
 C         -0.7627473352        3.6862966773        1.8410601438
 C         -1.7460940898        3.2562073356        2.7417115963
 C         -1.7762459199        1.9593567364        3.1900159633
 C         -0.8103944124        1.0463038901        2.7566117002
 C          0.2674343896        1.4730093880        1.9610704868
 C          0.2416912363        2.8018355494        1.5091512579
 B          1.3319016612        0.4124634032        1.6127126805
 C          2.7535701290        0.5047581027        1.0133944466
 C          3.5008914678        1.6761174255        0.8349009925
 C          4.7825636242        1.6652628061        0.3351109864
 C          5.3767553224        0.4522338469       -0.0149068066
 N          6.7096395854        0.4312134339       -0.5050130592
 C          6.9288370826        0.3606982410       -1.8693410929
 C          5.8377137742        0.3139000222       -2.7420498412
 C          6.0238040882        0.2408051156       -4.1064150476
 C          7.3051860882        0.2173726317       -4.6266657835
 C          8.3856296426        0.2762805845       -3.7656366406
 C          8.2276459674        0.3513834555       -2.3889543426
 C          9.4534744689        0.4295738681       -1.4992142232
 C         10.2580688824        1.6859624236       -1.8788251238
 C         10.3058248955       -0.8332778726       -1.7192637162
 C          9.0827273342        0.5136405815       -0.0309838252
 C         10.0868147614        0.5925856006        0.9238402846
 C          9.8103541957        0.6582849571        2.2770758581
 C          8.4934727164        0.6362995954        2.6992806636
 C          7.4758823092        0.5579329203        1.7720307841
 C          7.7526597649        0.5052125831        0.4023881736
 C          4.6781129812       -0.7275041026        0.1492747250
 C          3.3833631294       -0.7083075634        0.6725847252
 O          2.8226973358       -1.9370814959        0.8298669519
 C          1.6565187581       -2.1090328021        1.5022822676
 C          1.2330471107       -3.4107045277        1.7451150681
 C          0.0653214453       -3.6174055595        2.4607165767
 C         -0.6853679946       -2.5585174414        2.9381577190
 C         -0.2705647736       -1.2585900878        2.6690704880
 C          0.9021422398       -1.0104398016        1.9392502250
 O         -1.0261845574       -0.2410131426        3.1440437540
 C         -2.3201041936        5.0826683979        0.5870375932
 C         -3.1334620877        6.2136619255        0.5469804095
 C         -4.3881047557        6.1519159432       -0.0202634703
 C         -4.8874922775        4.9443013277       -0.5114674932
 C         -4.1042908795        3.7762062914       -0.4670705877
 C         -2.8071960429        3.9137626326        0.0311274968
 B         -4.7825431665        2.4489036969       -0.8671443502
 C         -4.3581652927        0.9684119087       -0.7141126787
 C         -3.2062585570        0.4882592863       -0.0739051891
 C         -2.9190630573       -0.8520524276        0.0302934641
 C         -3.8017699219       -1.7939338862       -0.5008989503
 N         -3.5118821987       -3.1752551577       -0.3722810052
 C         -3.5630980591       -3.7478805899        0.8888470367
 C         -4.0500940117       -3.0035947326        1.9680405858
 C         -4.1019909757       -3.5412264672        3.2368570349
 C         -3.6710282814       -4.8377628655        3.4550828950
 C         -3.2229283901       -5.5873582037        2.3832789860
 C         -3.1716379310       -5.0747754829        1.0944127568
 C         -2.7248202054       -5.9691827197       -0.0447977141
 C         -1.2770063137       -6.4236443492        0.2133967504
 C         -3.6640721158       -7.1877815616       -0.1038579191
 C         -2.7678573340       -5.2492734807       -1.3784760392
 C         -2.4107209222       -5.9349928435       -2.5312831969
 C         -2.3909404429       -5.3263893151       -3.7722946427
 C         -2.7152804612       -3.9854427504       -3.8698570815
 C         -3.0734717115       -3.2805309412       -2.7402895359
 C         -3.1269922685       -3.9014977618       -1.4885785884
 C         -4.9585271368       -1.3679143907       -1.1247688978
 C         -5.2379293012       -0.0031677708       -1.2311658445
 O         -6.4158517511        0.2758816567       -1.8502950973
 C         -6.9131403469        1.5358054220       -1.9174040146
 C         -8.1758121402        1.7013986968       -2.4741405577
 C         -8.7224905973        2.9716585742       -2.5382905771
 C         -8.0413181596        4.0741698143       -2.0538107887
 C         -6.7746680398        3.9035548114       -1.5048134460
 C         -6.1814384201        2.6326767653       -1.4386355132
 O         -6.1500477010        5.0013376871       -1.0174075612
 H         -1.5604039320        6.0806949847        3.0281903058
 H         -0.7261212304        7.1244333376        1.8712646334
 H          0.1867543199        5.9578181460        2.8227992549
 H          1.0982500823        5.3717099825        0.4838804942
 H         -0.1380189494        6.2953942907       -0.3684452342
 H          0.0252321680        4.5703370635       -0.6804023200
 H         -2.5265462156        3.9373872391        3.0453891056
 H         -2.5631441022        1.6099414161        3.8401526799
 H          1.0217982305        3.1054199958        0.8322255436
 H          3.0606101907        2.6168354265        1.1254791238
 H          5.3434412860        2.5805123809        0.2186058058
 H          4.8362810168        0.3377800496       -2.3413829852
 H          5.1658479109        0.2038197125       -4.7611431434
 H          7.4643460114        0.1585062999       -5.6924655181
 H          9.3799504936        0.2641739571       -4.1855761911
 H         11.1531855139        1.7719515679       -1.2694177649
 H          9.6500024443        2.5751179000       -1.7232883761
 H         10.5581610907        1.6540649968       -2.9223410095
 H         10.6027198921       -0.9238770104       -2.7603082154
 H         11.2043232984       -0.8059676665       -1.1092561848
 H          9.7327151161       -1.7175566599       -1.4471288505
 H         11.1190851699        0.6024395436        0.6084252064
 H         10.6159088364        0.7204551647        2.9926737262
 H          8.2545131210        0.6778152749        3.7515192598
 H          6.4514290490        0.5338757258        2.1092153290
 H          5.1306790990       -1.6741436844       -0.1027854669
 H          1.8246456169       -4.2379188201        1.3862692727
 H         -0.2687682130       -4.6240452182        2.6573716368
 H         -1.5915782629       -2.7268120999        3.4953768705
 H         -2.7903637804        7.1528594791        0.9519418729
 H         -5.0141357896        7.0292296477       -0.0771780204
 H         -2.1612661664        3.0536152264       -0.0065771695
 H         -2.5236600654        1.1924645609        0.3707203561
 H         -2.0233040811       -1.1930982323        0.5269738721
 H         -4.3942956858       -1.9941547983        1.8081352750
 H         -4.4803778770       -2.9449196632        4.0540833325
 H         -3.6956305760       -5.2665340329        4.4454361583
 H         -2.9094408868       -6.6047427763        2.5625804298
 H         -0.6188199431       -5.5574257211        0.2312755421
 H         -1.1975702355       -6.9405252429        1.1658611492
 H         -0.9386189300       -7.0973934970       -0.5687723750
 H         -3.3787368346       -7.8603403910       -0.9074149153
 H         -3.6389101736       -7.7436026753        0.8289486029
 H         -4.6860105677       -6.8572445987       -0.2790554118
 H         -2.1344183722       -6.9761692836       -2.4648727834
 H         -2.1141594607       -5.8907763906       -4.6495431581
 H         -2.6880226659       -3.4834742524       -4.8254972924
 H         -3.3104741354       -2.2320711698       -2.8262345267
 H         -5.6620823152       -2.0796096388       -1.5291121818
 H         -8.7125519716        0.8407873483       -2.8396837454
 H         -9.7039876282        3.1032233762       -2.9678054433
 H         -8.4728398463        5.0613829882       -2.0936536798
