129
 energy: -199.019982420632 gnorm: 0.000054821221 xtb: 6.7.1 (edcfbbe)
C           -0.69692085096294        6.21821254402866        2.20373944346485
C           -0.88664949805234        5.09638418100436        1.17182351459072
C            0.12570101413425        5.30321683649411        0.03636212963896
C           -0.72398917663266        3.76071913482316        1.88379210557651
C           -1.70668675081442        3.38648834122820        2.80600826063059
C           -1.69560655746559        2.13024348365929        3.37260862977822
C           -0.69322989533187        1.22076539766546        3.04202798715029
C            0.37389679188516        1.58990124024238        2.19857922642235
C            0.30230117506431        2.87084290407424        1.62716860932370
B            1.46629445418487        0.53007574939375        1.94082090352790
C            2.85284602543594        0.58832165610411        1.27269277181198
C            3.54884117094221        1.74716832270743        0.88192817587081
C            4.79463794632125        1.70848595882742        0.29555121545240
C            5.41125221769063        0.48151393185133        0.07072890530557
N            6.69932817368257        0.42464147494010       -0.54055660421765
C            6.78400779716866        0.31609023032563       -1.91224142241414
C            5.60697141251250        0.25760472836094       -2.67223854980555
C            5.65731663644918        0.14921255700032       -4.04378219582407
C            6.88492701215648        0.09676392066226       -4.68667221576118
C            8.04838216473458        0.15591023412194       -3.94101549340041
C            8.02991088089499        0.26613491395776       -2.55713353310460
C            9.33433955466179        0.32818085406823       -1.79030231429978
C           10.13490944642254        1.55344165805907       -2.27368360466959
C           10.12811975581599       -0.96500149901228       -2.06234697310475
C            9.10805140147906        0.45308418044760       -0.29804667533364
C           10.19693405685418        0.52957954141792        0.55976548035398
C           10.04397932450540        0.63970746489552        1.93005134081329
C            8.76909701552159        0.67559352944843        2.47451373634116
C            7.66968123234304        0.60305301172738        1.64912384372333
C            7.82016539348846        0.49297039046731        0.25907731214419
C            4.77716068314578       -0.69216483622142        0.46171698557550
C            3.52514259643672       -0.63709764165355        1.06358144224106
O            3.03009340735902       -1.86029390080750        1.42608242306768
C            1.88823766576631       -1.97851485481235        2.16385854235230
C            1.54180773787291       -3.25052144879643        2.60311453890495
C            0.39952585271741       -3.41425726854439        3.37209031716666
C           -0.39432646198363       -2.32792808279045        3.70357360670728
C           -0.04640896316136       -1.06356263868422        3.24160928508345
C            1.09877957595501       -0.85913384049518        2.45834223939482
O           -0.85757453641443       -0.02625107336353        3.58559021928345
C           -2.27589036788421        5.09856057799576        0.54754922445605
C           -3.07473663142958        6.23415561739477        0.45276203745655
C           -4.32131538410642        6.15852932294331       -0.14334619411513
C           -4.81257802116158        4.94262469089637       -0.61044140730981
C           -4.05007945734381        3.76013713483459       -0.50265727156765
C           -2.76683030072996        3.90804165361591        0.03168240207215
B           -4.71978629221506        2.43530879277434       -0.92272192074739
C           -4.31731298051782        0.95819835070424       -0.74848992697841
C           -3.19782947067961        0.46229901710032       -0.05207357693480
C           -2.92795868476695       -0.88186451686242        0.07125937298944
C           -3.78758344443631       -1.81511629413447       -0.50288675031121
N           -3.52173668761010       -3.20764821945955       -0.37505222512410
C           -3.72748494714510       -3.81476802024298        0.84727838262654
C           -4.25685975155795       -3.06863304898899        1.91068484256217
C           -4.45847221196010       -3.64221590596200        3.14555889756356
C           -4.14038255765778       -4.97681165514885        3.34697408514351
C           -3.64576757751774       -5.72425473269174        2.29392909842619
C           -3.43789649079858       -5.17566007342794        1.03562484234227
C           -2.94022631128424       -6.05514116184876       -0.09158005777136
C           -1.57081648396256       -6.64525875897529        0.29882856525474
C           -3.96350086482470       -7.18684478836451       -0.31397387860958
C           -2.77785420667062       -5.28144661354774       -1.38250264044133
C           -2.32911242950982       -5.93466187806693       -2.52272569137737
C           -2.13180315199304       -5.26941558199926       -3.71885523678562
C           -2.36919883297232       -3.90485156928875       -3.78763368692618
C           -2.81777396258139       -3.23058317766832       -2.67445815755384
C           -3.04809799618627       -3.90627663833987       -1.46690436166998
C           -4.91669497647837       -1.37801681904328       -1.18852310980965
C           -5.17742108712427       -0.01774182884395       -1.30399021554713
O           -6.32872998212974        0.26782311201884       -1.98605065542243
C           -6.81345625155145        1.54037681890534       -2.07617478457406
C           -8.04792677579490        1.70843901336306       -2.69105727674650
C           -8.58676136657321        2.98251733356011       -2.79205799398191
C           -7.91260701835153        4.08028069076818       -2.28188028875110
C           -6.67465890229413        3.89896123728317       -1.67405958442503
C           -6.09060370264593        2.62749807907855       -1.56798023212820
O           -6.06069893467355        5.00493807989145       -1.17117806339744
H           -1.49979768896047        6.21579698421980        2.93657664497044
H           -0.66604053579260        7.19110481702339        1.71935673806854
H            0.24556872275618        6.06979892167100        2.72800165602604
H            1.13889897271661        5.36507331221859        0.42695133642834
H           -0.09990948405161        6.23529605893183       -0.47869179795542
H            0.06556835385689        4.49403956873385       -0.68766458087538
H           -2.51214470173905        4.06561327502738        3.04265861395762
H           -2.47720652364384        1.81743003438242        4.04927014911453
H            1.07134023540711        3.13627981658975        0.92232899733111
H            3.09375239748715        2.70601675882138        1.06938831501076
H            5.29990511994911        2.61903823403983        0.00793528514011
H            4.65297376928142        0.29996771791795       -2.17082930152955
H            4.73975809993453        0.10598680869490       -4.61098645578814
H            6.93507211807130        0.01141927547375       -5.76147252058420
H            8.99446684851713        0.11489005375307       -4.45797351038919
H           11.08774128674068        1.61968121687046       -1.75705960800924
H            9.57289151467887        2.46498606394142       -2.07867512897475
H           10.32913389943018        1.49094635059972       -3.34025354672039
H           10.33472423597563       -1.07424105124543       -3.12289490450752
H           11.07414225710974       -0.95600585512416       -1.52912736065649
H            9.55468883509869       -1.82925091307574       -1.73195382664771
H           11.19609472054439        0.50151068341846        0.15373419916387
H           10.91244519688181        0.69656634582954        2.56834263682294
H            8.63185608429306        0.75985908797364        3.54202929166368
H            6.67775319336415        0.63065755078006        2.07176765585211
H            5.25065950599731       -1.65095029518308        0.31354937444281
H            2.16952523537306       -4.09020489054494        2.34718546096047
H            0.12587741403522       -4.39852063353126        3.72018702823385
H           -1.28024558020923       -2.44615327524661        4.30765566380838
H           -2.73635844735048        7.18543310249229        0.83159143997243
H           -4.94040930323166        7.03820470263186       -0.24378709059628
H           -2.12833117004804        3.04053244027029        0.05343257468387
H           -2.52997894690308        1.16110470487100        0.42366746847654
H           -2.05527815582943       -1.22294935005114        0.60942592688970
H           -4.51080476868439       -2.03219488977957        1.75548387815785
H           -4.86444502232770       -3.04782654512865        3.95032271955002
H           -4.28833933765837       -5.43424041786568        4.31334408446342
H           -3.42154466366083       -6.76600393967425        2.46244327059535
H           -0.84763157660571       -5.84365330331545        0.43652895796714
H           -1.64286975389312       -7.20737361774652        1.22504341984152
H           -1.20325542259286       -7.31069351488412       -0.47663929677539
H           -3.64002744986699       -7.84744976129007       -1.11276103635183
H           -4.08717181516889       -7.77739463831198        0.58881006760677
H           -4.92976677006899       -6.76518199885393       -0.58491206904312
H           -2.12318938805234       -6.99281662483828       -2.48169230387365
H           -1.78626586405984       -5.80869924034019       -4.58746816411189
H           -2.20275986959886       -3.36560909168453       -4.70792254691048
H           -2.99231917737171       -2.16776114647810       -2.72653155537290
H           -5.60366166510920       -2.08562201916164       -1.62766509315517
H           -8.57154337078551        0.84748115335065       -3.07706441000818
H           -9.54569667955080        3.11964176135896       -3.26805991061396
H           -8.33051020182989        5.07311767448887       -2.34647144656072
