101
 energy: -155.857521200364 gnorm: 0.000059921182 xtb: 6.7.1 (edcfbbe)
C           -9.84959471552437        4.53563742584632       -2.25062304909690
C          -10.24439331087869        3.23838966828824       -2.53159216708744
C           -9.55634285174984        2.16908894721998       -1.98911334661499
C           -8.45743027002537        2.38065338716228       -1.16024348195357
C           -7.72449378981998        1.24545337508696       -0.57833929531504
C           -8.41064851655601        0.14264778238306       -0.07862576002259
C           -7.72543888464500       -0.93500886515545        0.47438316086548
C           -8.45921319914252       -2.09688303872293        0.99981872925048
C           -8.00101675356154       -3.39015589297345        0.75990951342266
C           -8.69385708118600       -4.48327887765977        1.24568216895034
C           -9.85169353514535       -4.30244845581185        1.98348298028254
C          -10.31378370685984       -3.02076421092120        2.23129907476700
C           -9.62546940379259       -1.92647871253597        1.74155589031689
C           -6.33703394941408       -0.90133227270117        0.52196475932175
C           -5.62829186711342        0.19366379223679        0.02957271526310
C           -4.16558385255090        0.22093931068357        0.08739321707868
C           -3.41123897014681       -0.80191322327304       -0.56561365197379
C           -4.03595100115602       -1.79108092956363       -1.33037286022970
C           -3.30236635395595       -2.76151568352072       -2.00769390134741
C           -1.92628340781940       -2.72803030879020       -1.96893660495965
C           -1.27668751612379       -1.72817578356660       -1.24769848688081
C           -1.98635520549577       -0.77461672215261       -0.51458324140849
C           -1.32030712828800        0.27522348880994        0.19934320885757
C            0.13297669283210        0.30656645793354        0.24375454167416
C            0.84903903846863        1.44192173648113       -0.16106883501507
C            2.22381321998272        1.44860614696059       -0.16037904591798
C            2.94590630763069        0.32292360055631        0.25022084198780
C            4.39150182392411        0.38110079278754        0.20094766839914
N            5.07640602463400        1.48058370967886        0.40888224039703
C            6.38255028838887        1.14047965169742        0.28458609919279
C            7.52241645779436        1.97818225390095        0.45189863650695
C            7.42650658085369        3.32139984689356        0.79647837628017
C            8.57234754434000        4.08049461498592        0.96354072012117
C            9.81731554660094        3.51115964560340        0.78574381249101
C            9.95007462270279        2.16489502122268        0.43236934557089
C           11.22879979609639        1.56955103448086        0.23196994648949
C           11.34349031784497        0.27425508990778       -0.13720080672843
C           10.19367759964848       -0.54580378295122       -0.33288172395542
C           10.31954408370474       -1.87572356985980       -0.74412746814715
C            9.20087896402668       -2.65243117994619       -0.95779719468167
C            7.93418926276243       -2.13839952483551       -0.73874186922124
C            7.76128505405225       -0.82753445435234       -0.29662744839766
C            8.90608255961135        0.00338779526675       -0.11527470369915
C            8.78872142513505        1.37165204894910        0.26088259076357
C            6.50263152537944       -0.21629415048592       -0.03047022292118
N            5.21353472443252       -0.69417681111887       -0.06963363408460
C            4.76630973448357       -1.99875881470332       -0.35549816299914
C            3.97141704680567       -2.22159631082676       -1.47386525966253
C            3.49355481696977       -3.49358154079256       -1.73171914470525
C            3.80764415004168       -4.54180278046251       -0.88280649359606
C            4.60293764288939       -4.31880472392366        0.22987660479428
C            5.08118984564314       -3.05002070197066        0.50039451600568
C            2.23940429074176       -0.79287314061442        0.70695813245427
C            0.86347253491286       -0.80137110297889        0.69244290576067
C           -2.08015734836286        1.29351427676889        0.86208935718124
C           -1.46522418845197        2.26544816939292        1.65395324045527
C           -2.20594250785896        3.23733459772224        2.32386793133443
C           -3.58104161378469        3.22313534636830        2.24988868130710
C           -4.22335812473285        2.23154039955193        1.51287444163194
C           -3.50437514542838        1.26875131525281        0.79916342310380
C           -6.33624903692919        1.26266675915380       -0.51795020598424
C           -8.06636729706301        3.68935855976511       -0.88741716925373
C           -8.75916986958307        4.75731488021555       -1.42631963828058
H          -10.38929779301285        5.37048720587264       -2.67280775636414
H          -11.09157179370390        3.05944270835498       -3.17788279516052
H           -9.85921568170308        1.15905049766206       -2.22494414309479
H           -9.48963314566406        0.12288762770702       -0.12043552849554
H           -7.10591378543950       -3.53871059713946        0.17306669257521
H           -8.33027666037937       -5.48110952797342        1.04673640188721
H          -10.39149562450411       -5.15691121794810        2.36428625122454
H          -11.21397221300563       -2.87356228873102        2.81042842967791
H           -9.98199816367313       -0.92841127264846        1.95185932333547
H           -5.79580077321315       -1.71323268492126        0.98588179872864
H           -5.11182314822708       -1.79446877135627       -1.41484536279405
H           -3.81879357223471       -3.52155093131470       -2.57511343547298
H           -1.34276709127796       -3.46041803249254       -2.50690860145015
H           -0.19865836673416       -1.68643083867783       -1.27430195678244
H            0.30647308569441        2.30347408795666       -0.52227247404720
H            2.77285158614524        2.31593556359996       -0.49245603196229
H            6.44508834589870        3.74786777353611        0.93277133808633
H            8.49142455614076        5.12322629416998        1.23454245589486
H           10.71032990448801        4.10624955008075        0.91537912245065
H           12.10609791293252        2.18448269964676        0.37569329558398
H           12.31499089396041       -0.17173952143010       -0.29785326408008
H           11.30657829075629       -2.28456119076894       -0.90576849187170
H            9.30705410332402       -3.67221796195567       -1.29854007409437
H            7.07534271783650       -2.76286993143937       -0.92657251092776
H            3.73057774186999       -1.39645362110109       -2.12762717916404
H            2.87520530263622       -3.66575467341070       -2.59973199276032
H            3.43254581689034       -5.53317935264304       -1.08681488670149
H            4.84777778310275       -5.13433432259679        0.89372293654062
H            5.69679442013531       -2.86305867960292        1.36836808921988
H            2.76631229712559       -1.64829050265012        1.10169969172841
H            0.33106086217499       -1.66207800226984        1.07090920554256
H           -0.39248109921469        2.25847865768106        1.76887267072370
H           -1.69395585655219        3.98546918182127        2.91035540647582
H           -4.16810705476325        3.96175145962895        2.77531050335040
H           -5.30205811303671        2.19718341245093        1.50980812065207
H           -5.79072763852969        2.09468159268632       -0.93920357076961
H           -7.22508290353113        3.86954952273000       -0.23366692068915
H           -8.44844108735524        5.76734210707100       -1.20125734366866
