101
 energy: -155.857522719188 gnorm: 0.000031450250 xtb: 6.7.1 (edcfbbe)
C           -9.92515063043137        4.44376717808715       -2.22692137756084
C          -10.31188352325896        3.14059216860195       -2.49117772641983
C           -9.60621987119022        2.08232368505619       -1.94968378693248
C           -8.49758005442559        2.31100561071463       -1.13848373444347
C           -7.74617325767408        1.18772392303959       -0.55700355552558
C           -8.41524964522814        0.08276117937982       -0.03921660411121
C           -7.71271778688070       -0.98368602452163        0.51382696825861
C           -8.42823416356870       -2.14879995628587        1.05697736746672
C           -7.95892568193339       -3.43900700426875        0.82195697004066
C           -8.63455668761638       -4.53560761003155        1.32382764084700
C           -9.78608768477005       -4.36133948602292        2.07299101276883
C          -10.25910237446756       -3.08273305534903        2.31605065472672
C           -9.58797076646723       -1.98502245506257        1.81034093893427
C           -6.32426534715248       -0.93602524810670        0.54369298926798
C           -5.63233669610196        0.16135172169741        0.03290459694013
C           -4.16932160724561        0.20143740568595        0.07255482903208
C           -3.41519904414498       -0.82214663744355       -0.57957224482213
C           -4.04127417428746       -1.82032381655462       -1.33139364497357
C           -3.30834625320928       -2.79221864612912       -2.00727373035167
C           -1.93213232374278       -2.75166918635850       -1.98009125533596
C           -1.28162785535603       -1.74309845958541       -1.27197769051312
C           -1.99017886688606       -0.78727940181590       -0.54073527571965
C           -1.32341443465697        0.27113213215454        0.15957298904721
C            0.12997319725967        0.30619687209248        0.19767909236302
C            0.84272475899291        1.43929892485710       -0.21925477057870
C            2.21737430838482        1.45077043476383       -0.21678735993326
C            2.94339567572866        0.33266703317794        0.20807837924687
C            4.38864908773802        0.40084390749555        0.16759451620914
N            5.06135608235044        1.51153037415759        0.35653383664851
C            6.37161186652521        1.18164944255331        0.25200298674740
C            7.50161719967771        2.03454326742385        0.40935616812208
C            7.38923972114827        3.38466735641683        0.72028459515535
C            8.52590925317729        4.15930308226664        0.87847597950368
C            9.77801214155539        3.59853556882295        0.72533089069822
C            9.92732730630232        2.24541701864358        0.40638589737914
C           11.21368462538714        1.65835426156537        0.23219471227113
C           11.34457601914797        0.35534089437609       -0.10283607087343
C           10.20480377406644       -0.48102898995011       -0.28793032720011
C           10.34785175384925       -1.81982495783011       -0.66319310713896
C            9.23905541349534       -2.61309130965650       -0.86713417532012
C            7.96524759954543       -2.10619450269134       -0.67427959891384
C            7.77494217472718       -0.78607144616475       -0.26827912814984
C            8.90979821670241        0.06051406647461       -0.09669979484730
C            8.77551881452698        1.43643291417216        0.24426568104069
C            6.50774209617128       -0.18087237773925       -0.03023363697759
N            5.22365001509969       -0.67210075964047       -0.07052785373577
C            4.79317363182853       -1.98705707473650       -0.33427597136166
C            4.02069502139510       -2.24262418947402       -1.46127295376609
C            3.56064446552183       -3.52498494553998       -1.69947667251877
C            3.87014319809826       -4.55096383436991       -0.82219010320443
C            4.64279256238635       -4.29524787580255        0.29939404617666
C            5.10329418602589       -3.01588032051985        0.55016586118803
C            2.23992253130158       -0.78183157095783        0.67277782917186
C            0.86401688371037       -0.79546680481515        0.65586691611271
C           -2.08281311650043        1.29274724376068        0.81783632396570
C           -1.46637255886850        2.27588781983613        1.59456384280469
C           -2.20633856145766        3.25124263139823        2.26020435214949
C           -3.58191415819706        3.22938903071902        2.19805233336911
C           -4.22527997985166        2.22660776654695        1.47731114292860
C           -3.50747235617125        1.26012628042920        0.76738857679353
C           -6.35742420483928        1.21858516292122       -0.51496132687917
C           -8.11479644215096        3.62555591430356       -0.88247944998849
C           -8.82506570421424        4.68246746175162       -1.42039919373421
H          -10.47862176512398        5.26998940803225       -2.64824473172232
H          -11.16661849323802        2.94837116562743       -3.12355974818878
H           -9.90311298224043        1.06759538589594       -2.17262792002741
H           -9.49443564674920        0.05237680351720       -0.06703411416117
H           -7.06885452263026       -3.58263473719609        0.22630131238428
H           -8.26249043691043       -5.53103075756806        1.12853639706715
H          -10.31251326378432       -5.21849855385424        2.46625816607544
H          -11.15442637376669       -2.94062381638071        2.90392914263752
H           -9.95287059479711       -0.98921587904321        2.01696709332213
H           -5.76925372489901       -1.73864958529230        1.00746692805833
H           -5.11782155322570       -1.82981697807716       -1.40673324289787
H           -3.82557326768220       -3.55920904439123       -2.56453760135048
H           -1.34948174706310       -3.48540083247370       -2.51717604099593
H           -0.20403424906308       -1.69622655390798       -1.30727354208535
H            0.29767711527162        2.29522665565056       -0.58999134603848
H            2.76387851931522        2.31664364988555       -0.55668592144833
H            6.40244092074084        3.80427428935636        0.83770847223639
H            8.43218718653091        5.20746879351827        1.12310613853672
H           10.66386108291282        4.20569539598566        0.84795307930125
H           12.08347821091828        2.28562292779561        0.36799186997156
H           12.32188813733943       -0.08472087713524       -0.24335138883157
H           11.34042190866985       -2.22273838472775       -0.80454278106932
H            9.35861233395035       -3.64041012487766       -1.17965402416702
H            7.11461370485216       -2.74408942055037       -0.85403810226533
H            3.78325039771687       -1.43448989589857       -2.13714270003705
H            2.95991783491497       -3.72274966366441       -2.57437496065625
H            3.50900813732657       -5.55050610403935       -1.01097429682940
H            4.88381941562073       -5.09340368773574        0.98537793885257
H            5.70147745627443       -2.80340630819258        1.42442226830785
H            2.76865696614075       -1.63179330075448        1.07661623840853
H            0.33423230522601       -1.65482228482292        1.04107676697118
H           -0.39274870086678        2.27533876921938        1.70109216233396
H           -1.69320339370276        4.00809511291719        2.83437770710329
H           -4.16828238878361        3.97064525979399        2.72052149214911
H           -5.30375658577736        2.18650831343795        1.48422515184105
H           -5.82541328917567        2.05172669202487       -0.95100351870864
H           -7.26597061265596        3.81909710042307       -0.24244302687505
H           -8.52046063176272        5.69718113985739       -1.20843766300561
