  112
       -173.20151541
 C         12.2922515846        2.7186704338        2.4641922367
 C         11.4180628815        1.7340145213        2.6331429938
 C         10.8939986221        0.8440781532        1.6044999737
 C         11.3181609178        0.8814128950        0.2751885715
 C         10.7870550873        0.0192014617       -0.6617965869
 C          9.8206247723       -0.9124884532       -0.3017430579
 C          9.2596100845       -1.8667269125       -1.3273739168
 O          7.9681574685       -2.3431013114       -1.0252545465
 C          6.9267616327       -1.4659222155       -1.0487612754
 C          7.0142099882       -0.1160786875       -1.3544515801
 C          5.8756636675        0.6857601689       -1.3802186324
 C          4.6211978036        0.1924602241       -1.0891372738
 C          4.5275948631       -1.1522130291       -0.7529670555
 C          5.6629761280       -1.9880385541       -0.7458668053
 C          5.2065498766       -3.3046637751       -0.4053313122
 C          5.8493104860       -4.5229388193       -0.2287487463
 C          5.0931494678       -5.6206344752        0.1307611889
 C          3.7184956300       -5.5119960653        0.3285103247
 C          3.0579440316       -4.3100211910        0.1582723368
 C          3.8077178563       -3.2082167419       -0.2265643553
 N          3.4117604867       -1.9018348690       -0.4394442814
 C          2.1003005688       -1.4195541628       -0.3519987615
 C          1.0643316700       -2.0721308685       -1.0162325702
 C         -0.2282316416       -1.6003883343       -0.9276185640
 C         -0.5169966324       -0.4607769138       -0.1766047018
 N         -1.8290765454        0.0183769379       -0.0890128313
 C         -2.0732073962        1.3943247489       -0.0923247076
 C         -3.1046726383        1.9347471237        0.6769100547
 C         -3.3574539387        3.2900545518        0.6585810027
 C         -2.5715918160        4.1432942291       -0.1120885677
 N         -2.8273618638        5.5207990949       -0.1297120450
 C         -2.9768349122        6.3305959269        0.9783097534
 C         -2.8627370492        6.0161628588        2.3249906105
 C         -3.0389351472        7.0342493691        3.2422181713
 C         -3.3142359532        8.3387202965        2.8377362555
 C         -3.4053404694        8.6623865511        1.4989058246
 C         -3.2317155443        7.6562628291        0.5576741332
 C         -3.2393490192        7.6342795450       -0.8780859963
 C         -3.4472262357        8.6064461598       -1.8476715326
 C         -3.4073471921        8.2347543475       -3.1764944375
 C         -3.1785086843        6.9103179153       -3.5432585481
 C         -2.9682230608        5.9255099317       -2.5973474186
 C         -2.9836018385        6.2973266312       -1.2605841630
 C         -1.5305412190        3.6101175483       -0.8680662247
 C         -1.2908319054        2.2522629056       -0.8665736464
 C         -2.8934584049       -0.8844851775       -0.0062000811
 C         -2.7613322190       -2.0694027545        0.7187028953
 C         -3.8096242323       -2.9612159074        0.8017104177
 C         -5.0156325950       -2.6930781428        0.1588479104
 N         -6.0794094813       -3.6009032251        0.2398482173
 C         -7.3802233957       -3.2933374769        0.5854553614
 C         -7.9285963235       -2.0793665683        0.9740056480
 C         -9.2717945197       -2.0517753281        1.2962998964
 C        -10.0566538771       -3.2016689245        1.2437475319
 C         -9.5117986389       -4.4167094885        0.8800920014
 C         -8.1635484897       -4.4699761444        0.5517897916
 C         -7.2835300337       -5.5348262422        0.1599440275
 C         -7.4668136951       -6.8936102327       -0.0603227400
 C         -6.3844887356       -7.6507629371       -0.4612329252
 C         -5.1348491399       -7.0666762686       -0.6567291683
 C         -4.9277043640       -5.7173125049       -0.4443658420
 C         -6.0064172151       -4.9551274262       -0.0191828191
 C         -5.1507457033       -1.5122622623       -0.5670815186
 C         -4.1038383711       -0.6185554701       -0.6474562253
 C          0.5228711120        0.1921737983        0.4852343345
 C          1.8146082418       -0.2830717013        0.4009086482
 C          9.3957179945       -0.9625260682        1.0187909985
 C          9.9228270562       -0.0953151379        1.9543480480
 H         12.7163728535        2.9665227623        1.5058925841
 H         12.6183113693        3.3242357071        3.2923443793
 H         11.0265814095        1.5476225877        3.6266725782
 H         12.0695192442        1.5921354510       -0.0315512378
 H         11.1251976428        0.0665415261       -1.6879068994
 H          9.8797106528       -2.7711140704       -1.3590008045
 H          9.2790819487       -1.4075852607       -2.3260175873
 H          7.9667166391        0.3378032458       -1.5755981068
 H          5.9873357127        1.7284770088       -1.6380803681
 H          3.7491792666        0.8257463385       -1.1312887105
 H          6.9160764501       -4.5941219954       -0.3692438067
 H          5.5711333076       -6.5789444316        0.2709694279
 H          3.1561560395       -6.3854934985        0.6246900301
 H          1.9949687880       -4.2323556070        0.3312433017
 H          1.2830474088       -2.9389621153       -1.6210612605
 H         -1.0248874691       -2.1060242044       -1.4529438794
 H         -3.7120273364        1.2814615849        1.2855227098
 H         -4.1714837892        3.6960482849        1.2398304321
 H         -2.6330086864        5.0117931977        2.6478779795
 H         -2.9582258303        6.8143994103        4.2966777057
 H         -3.4486774262        9.1056464428        3.5859711989
 H         -3.6032848653        9.6761202308        1.1847408311
 H         -3.6402178202        9.6297272762       -1.5627373901
 H         -3.5642744136        8.9755975892       -3.9463287462
 H         -3.1687260007        6.6466360915       -4.5906877423
 H         -2.8087240632        4.8988653394       -2.8911795432
 H         -0.9087388557        4.2681046789       -1.4560505164
 H         -0.4899397530        1.8454819402       -1.4658666834
 H         -1.8326066351       -2.2796231170        1.2280408968
 H         -3.7065593899       -3.8633226384        1.3855585830
 H         -7.3252992132       -1.1859667656        1.0342776516
 H         -9.7227166733       -1.1181898829        1.5993005363
 H        -11.1035231687       -3.1378690684        1.5008335607
 H        -10.1160723400       -5.3109596182        0.8540226725
 H         -8.4388958598       -7.3428925430        0.0764675048
 H         -6.5048796418       -8.7096202625       -0.6356306574
 H         -4.3099881791       -7.6818770430       -0.9850813763
 H         -3.9595249256       -5.2711794892       -0.6155798024
 H         -6.0748727349       -1.3097117310       -1.0869706498
 H         -4.2133272676        0.2895038873       -1.2214993947
 H          0.3078667531        1.0692956355        1.0774247298
 H          2.6089778167        0.2129853001        0.9374328618
 H          8.6455966187       -1.6838624082        1.3083782530
 H          9.5789336027       -0.1455999920        2.9778049784
