112
 energy: -173.201653027528 gnorm: 0.000033717444 xtb: 6.7.1 (edcfbbe)
C           12.39603723058276        2.48399957171868        2.13523084411270
C           11.37199790412286        1.65479922933308        2.29741744508532
C           10.80147590146883        0.76515606601984        1.29350814261256
C           11.20629822398813        0.76460806634425       -0.04240349283796
C           10.63269267830908       -0.09618184721521       -0.95524523727361
C            9.64231088426077       -0.98930353896688       -0.56340273831342
C            9.03688488187853       -1.94161654703434       -1.56538317745472
O            7.75094955240450       -2.40347363768269       -1.22179174284490
C            6.71602276312527       -1.51831499751388       -1.22430562701980
C            6.80705237435232       -0.16891595327033       -1.53093840616452
C            5.67395213363951        0.64113393329284       -1.53243613851233
C            4.42181465587775        0.15629979377490       -1.21780002518169
C            4.32506555869153       -1.18836695011927       -0.88253088436036
C            5.45489120609075       -2.03166234073474       -0.89662986125134
C            4.99635066884673       -3.34559025362688       -0.54869610681004
C            5.63446008643670       -4.56776811126682       -0.38249604378674
C            4.87750961225096       -5.66073826122705       -0.01046356097945
C            3.50687662851136       -5.54376726759252        0.20932831398663
C            2.85106137955464       -4.33773127062590        0.05004107240562
C            3.60143694964866       -3.24046196570566       -0.34636609066583
N            3.21020062746083       -1.93142839678765       -0.55121245670706
C            1.90197619375719       -1.44444646070252       -0.44253271712018
C            0.85532882185459       -2.09081681651755       -1.09595209051959
C           -0.43532688187339       -1.61950964618802       -0.98278124857822
C           -0.71199461560457       -0.48730737036258       -0.21600784965064
N           -2.02355822643057       -0.01388925017646       -0.09860854163258
C           -2.27357809895857        1.36062179402911       -0.07041033928325
C           -3.29307974945187        1.88069939037346        0.72824618943636
C           -3.54823865591404        3.23557849019857        0.74599467457573
C           -2.77707155230701        4.10823227593727       -0.01775936116049
N           -3.03196600731674        5.48582014137292        0.00595274495104
C           -3.15537448953134        6.26573221354403        1.13841522853782
C           -3.01386586435763        5.91463058938438        2.47338285139142
C           -3.16594030216458        6.90825487403374        3.42124313431919
C           -3.44422758319587        8.22419001718121        3.05805576323726
C           -3.56310470564071        8.58411064095555        1.73070304276484
C           -3.41420644283405        7.60306734436363        0.75924497609577
C           -3.45199174270452        7.62000518998836       -0.67610819072415
C           -3.67718534980180        8.61866755501898       -1.61436377048183
C           -3.66552293950039        8.28323236339020       -2.95334865846785
C           -3.44748127979889        6.96885189794947       -3.36062506568480
C           -3.22086155899223        5.95808724549929       -2.44638441179550
C           -3.20839072942317        6.29327443203907       -1.09994053815712
C           -1.75050774878140        3.59467121594603       -0.80638153536181
C           -1.50845932855130        2.23764391658999       -0.84049195775329
C           -3.08274107305319       -0.92305292279871       -0.01252554500138
C           -2.93489335754409       -2.11599358245057        0.69601118645339
C           -3.97666120969421       -3.01517005867765        0.78002283857184
C           -5.19171118815411       -2.74634515678617        0.15460102513275
N           -6.24828984464989       -3.66239565635700        0.23658635126967
C           -7.54606039941222       -3.36890961464145        0.60511798977502
C           -8.09793255291907       -2.16341339616174        1.01444231790452
C           -9.43640773116459       -2.14975144392496        1.35663675153525
C          -10.21301057002650       -3.30519003469024        1.30346077671025
C           -9.66417906360622       -4.51210380608524        0.91925013254971
C           -8.32054340450982       -4.55135946686517        0.57074763782340
C           -7.43820010524106       -5.60501446168691        0.15457377729757
C           -7.61386477231245       -6.96302110540002       -0.07644890145493
C           -6.53185059288418       -7.70715114144044       -0.50186082703796
C           -5.29026369944052       -7.11081064639476       -0.71115198175395
C           -5.09064323599681       -5.76206482649714       -0.48793755632077
C           -6.16861931941000       -5.01322077885983       -0.03786459209836
C           -5.34298500560384       -1.55686556698881       -0.55373313859472
C           -4.30247526759166       -0.65559651409513       -0.63482573997370
C            0.33908914946609        0.16118096153476        0.43250160080016
C            1.62941994142200       -0.31284383019080        0.32224561798587
C            9.23484567064735       -1.00004135689048        0.76344891032581
C            9.80161856580308       -0.13105982352944        1.67397586506004
H           12.92669202602528        2.58204746506669        1.20376801066490
H           12.74869520682096        3.10167594257796        2.94332143150374
H           10.89209066179848        1.60032584567946        3.26737422400794
H           11.96998428021539        1.45034491942082       -0.37471907190799
H           10.95459866517046       -0.07729317610500       -1.98749933602978
H            9.64646522642495       -2.85246090718137       -1.61331198170245
H            9.02955326317596       -1.48632602052653       -2.56607715191171
H            7.75833610880717        0.27805292693351       -1.77099289883464
H            5.78807318707937        1.68352570954901       -1.79058440725056
H            3.55358708914104        0.79576387748005       -1.24170860668004
H            6.69835130332607       -4.64542434813198       -0.54021813790774
H            5.35187864830285       -6.62187960128091        0.12240370796678
H            2.94404955228364       -6.41385181262023        0.51449526054897
H            1.79146693633317       -4.25346163453096        0.23998566896247
H            1.06403155302984       -2.95308774940565       -1.71077681117304
H           -1.24034857477509       -2.12057733032555       -1.49962929874076
H           -3.88833903568025        1.21220914015596        1.33229818550513
H           -4.35213524121630        3.62637384774641        1.35126974384736
H           -2.78138944815056        4.90111609799026        2.76413089010276
H           -3.06337226273876        6.65976010209503        4.46741485323421
H           -3.55888256024592        8.97121278956744        3.82936833047711
H           -3.76349156005914        9.60665715799772        1.44825787786822
H           -3.86145536859509        9.63420946181817       -1.29774556686390
H           -3.83617312828463        9.04511575778654       -3.69935082390288
H           -3.45928924392527        6.73393791690952       -4.41486384421037
H           -3.06995800609526        4.93953122797302       -2.77126349000434
H           -1.14109687855833        4.26720481265059       -1.39088188125205
H           -0.71838143504865        1.84644287726255       -1.46401777650788
H           -1.99879235422006       -2.32682548698281        1.19139623998821
H           -3.86147437228497       -3.92411333010309        1.35086159896841
H           -7.50068128095298       -1.26600416221964        1.07519063911797
H           -9.89007150735889       -1.22289102494330        1.67574073605392
H          -11.25652351216109       -3.25229402970740        1.57617946886082
H          -10.26188716312608       -5.41074215304098        0.89271760943311
H           -8.57998061065148       -7.42170873560998        0.07095382512032
H           -6.64636886113063       -8.76518415282639       -0.68501746051254
H           -4.46585370783805       -7.71582877536313       -1.05898352812642
H           -4.12889817560765       -5.30619909015896       -0.66949177221975
H           -6.27458636805820       -1.35330705775158       -1.05968520195536
H           -4.42428809543880        0.25967734631960       -1.19479437799619
H            0.13425089807036        1.03311864834390        1.03581736569555
H            2.43286941280293        0.17967388690900        0.84844745564590
H            8.46527116526811       -1.68987306472970        1.07766725889547
H            9.46911757005191       -0.14852424955839        2.70230998918195
