112
 energy: -173.105226308056 gnorm: 0.000160059687 xtb: 6.7.1 (edcfbbe)
C           12.32762335062097        2.71083511192207        2.46021760736360
C           11.38957608925020        1.78153691556660        2.61905936826303
C           10.87289265217340        0.87851542860327        1.60250108466938
C           11.29935463303234        0.90074800568336        0.27171195380705
C           10.77448863587890        0.02532540658413       -0.65522479574461
C            9.81145240050491       -0.90763913470628       -0.28621342787530
C            9.25700024257363       -1.87468762784842       -1.30290053172229
O            7.95997171261318       -2.34483133370117       -1.00643574696674
C            6.92264619870569       -1.46814336158958       -1.03965670701726
C            7.01517604537470       -0.11698681580461       -1.34704186061334
C            5.87834964952962        0.68714215463226       -1.38937380271443
C            4.61882331421051        0.19449141559030       -1.10830327636732
C            4.51924355249412       -1.14687821687805       -0.76449161282589
C            5.65420197466473       -1.98788891188930       -0.75076070058884
C            5.19225650991118       -3.30493284398288       -0.42993945177248
C            5.83257889765182       -4.52541699018020       -0.25590742776062
C            5.07362953849913       -5.62391055302576        0.09647993194016
C            3.69804544380469       -5.51487829782555        0.29463191499805
C            3.03949428735515       -4.31047448480922        0.12391191630493
C            3.78884678163322       -3.20921272941384       -0.26232456510741
N            3.39410502154704       -1.89804453286071       -0.46731162491322
C            2.09612778249871       -1.41929250848259       -0.38610615999843
C            1.03229026790099       -2.12352830980797       -0.98442373080991
C           -0.24949705168117       -1.65619269120372       -0.90143819014992
C           -0.53677604349424       -0.45643326393542       -0.21353246914020
N           -1.83662528712327        0.01272074497918       -0.11976836357474
C           -2.08393968796017        1.38195014884225       -0.12307429003806
C           -3.11275451614353        1.92685923753619        0.66760737303925
C           -3.35056278929370        3.27662122654129        0.66915538229471
C           -2.57957541235732        4.14006001004268       -0.12674844003608
N           -2.82493163680277        5.50922038307131       -0.12737085640474
C           -3.00833635875929        6.30097214526234        0.99333050348036
C           -2.93277822544004        5.96444750309781        2.33633937069917
C           -3.12476414472564        6.96842978346912        3.26809690776571
C           -3.37849751821102        8.28227900566382        2.87824770048437
C           -3.42504739507663        8.63053674241496        1.54343048399933
C           -3.23158760625746        7.63956026755836        0.58867625137063
C           -3.18178560938121        7.64829862842699       -0.84384365359692
C           -3.34356717026352        8.64475570173254       -1.79877424963677
C           -3.26612916389283        8.30177362493834       -3.13352246289985
C           -3.04856620439344        6.98137591798175       -3.52311851612005
C           -2.88091360309998        5.97320507521387       -2.59117548051881
C           -2.92711187761873        6.31522024563840       -1.24822293441755
C           -1.55645298988854        3.59702090255722       -0.92137872720818
C           -1.30928668222423        2.24891522157809       -0.91620432395654
C           -2.89184100215387       -0.88085210290261       -0.02193423347670
C           -2.74410150853751       -2.09855013719279        0.67663082761294
C           -3.78252895412814       -2.98395910745239        0.76355834654453
C           -5.02240023717014       -2.70098276563126        0.15816292517065
N           -6.07329438357447       -3.60060595305812        0.24469179495382
C           -7.39058191787222       -3.28632444956751        0.53704080538067
C           -7.95528479975226       -2.06552335851328        0.87141117832473
C           -9.30955364094231       -2.03221831005739        1.15487095843477
C          -10.08709694274755       -3.18851776043867        1.11660022614464
C           -9.52561141642826       -4.41341689329559        0.81650524224682
C           -8.16625279293125       -4.47261836708042        0.53246839303284
C           -7.27094906401129       -5.54714671751724        0.22344224858556
C           -7.44208099572630       -6.91722374558512        0.06314239994835
C           -6.34803581400762       -7.68600603808301       -0.27994339740712
C           -5.09718503973463       -7.10503189475031       -0.48218224458170
C           -4.90142399331923       -5.74407971647769       -0.32411199603664
C           -5.98778090409118       -4.97001007229158        0.05227488689626
C           -5.17254244341200       -1.48450195194937       -0.53716934269012
C           -4.13558055688371       -0.59764007649231       -0.62538172493066
C            0.53110851852621        0.24943519235133        0.38258144259685
C            1.81200217478478       -0.21983892251081        0.29805754215630
C            9.38394432237375       -0.94346339017667        1.03495120212694
C            9.90271871543976       -0.06161077109398        1.96005202486810
H           12.81724040122469        2.89242496367077        1.51905694554749
H           12.64345616691105        3.33132976440658        3.28114993370725
H           10.94352385673992        1.65480930964979        3.59849851819526
H           12.04494106885481        1.61415881109314       -0.04286241998292
H           11.11374618895726        0.06231440023603       -1.68162321566835
H            9.87304622950652       -2.78226062406403       -1.31833925490003
H            9.28460753358019       -1.42920713020165       -2.30751070727870
H            7.97120657501679        0.33325471579252       -1.55951029174873
H            5.99269699910477        1.72753801355742       -1.65358992705770
H            3.74956227183053        0.82921525034591       -1.17193090337784
H            6.89999970801410       -4.59658688380744       -0.39020442613807
H            5.55064625888645       -6.58285724016975        0.23533975497122
H            3.13495686580714       -6.38657874376009        0.59324026923833
H            1.97821569161199       -4.23344395140327        0.30488991790509
H            1.24883749681627       -3.01420728323240       -1.55377355950648
H           -1.05376742854667       -2.17832380374048       -1.39788795893381
H           -3.70530186979038        1.26950024724271        1.28615086650363
H           -4.15102736388175        3.68430561363570        1.26714519030692
H           -2.71519138945845        4.95518387281620        2.65152255246508
H           -3.07215863982931        6.72939069308025        4.31988890130243
H           -3.52811636111250        9.03732007643765        3.63569391191799
H           -3.60137555245150        9.65189924233608        1.24155702277825
H           -3.53223300861754        9.66396576840144       -1.49708263084517
H           -3.38723392750178        9.06178013064078       -3.89110311541810
H           -3.01465190104046        6.73881616350553       -4.57487854287154
H           -2.73493164534011        4.95106620958686       -2.90618037536665
H           -0.94795574106338        4.25625830692819       -1.52111849358572
H           -0.52488965738687        1.83734566823795       -1.53356011830201
H           -1.80970973577055       -2.30295497998095        1.17775720055291
H           -3.67558427998451       -3.88954603604963        1.34062438608695
H           -7.36009446708650       -1.16686877873210        0.92823332415907
H           -9.77130598195917       -1.09177786082700        1.41606483337689
H          -11.14185745546577       -3.12173459074392        1.33860948680575
H          -10.12431078341148       -5.31164320176502        0.80757556181635
H           -8.41492262531454       -7.36492989787667        0.19899108558863
H           -6.46048997763520       -8.75246139375591       -0.40760276473133
H           -4.26466512424393       -7.72792583752974       -0.77333704912450
H           -3.93321160134679       -5.30359255210538       -0.50740416597808
H           -6.10380348998460       -1.28117840828498       -1.04293483957960
H           -4.24587683027606        0.31482251191915       -1.19224641378171
H            0.31563331431030        1.14760936745675        0.94192511254659
H            2.61416454884380        0.29988487259715        0.79863117898361
H            8.63632734440337       -1.66472998012835        1.33185950160567
H            9.55532717291457       -0.09978680336483        2.98297228838199
