112
 energy: -173.201654303487 gnorm: 0.000117408157 xtb: 6.7.1 (edcfbbe)
C           12.36881303621269        2.68334308142985        2.44000930786915
C           11.39855062756093        1.79021547525975        2.59363192673350
C           10.87843786843967        0.88091866381560        1.58010681898947
C           11.31987629061372        0.88152928810230        0.25582704192702
C           10.79143601975533        0.00237985788926       -0.66679770577312
C            9.81102138196387       -0.91063160499251       -0.29656642143712
C            9.25188232989462       -1.88145487733649       -1.30759404409468
O            7.95913436344832       -2.35177779458413       -1.00237392230217
C            6.91869343315897       -1.47390662394808       -1.03982404621106
C            7.00762829985450       -0.12846381821387       -1.36401064791104
C            5.86987875116540        0.67410582575988       -1.40117730200404
C            4.61461035266096        0.18585669196716       -1.10502676494516
C            4.51936552985975       -1.15436213450301       -0.75203308451753
C            5.65411491357232       -1.99082123384891       -0.73151450882537
C            5.19616881496929       -3.30242631846290       -0.37401340886753
C            5.83769814208389       -4.51846719117827       -0.17861577752350
C            5.07982538041488       -5.61055241913505        0.19418478569578
C            3.70463333876787       -5.49848687728705        0.38625853595687
C            3.04527382885371       -4.29864396986033        0.19742666427597
C            3.79696990620781       -3.20271728955227       -0.20014749801814
N            3.40246133155374       -1.89912625262646       -0.43137850312782
C            2.09076489946832       -1.41576896022421       -0.35358033515304
C            1.05765800791873       -2.07461643079001       -1.01594085889348
C           -0.23551896088743       -1.60312666241997       -0.93571537482311
C           -0.52787148080502       -0.45829907110041       -0.19406364362981
N           -1.84108360378459        0.01847477783532       -0.11219977074967
C           -2.08734214019821        1.39406817700035       -0.11654669691567
C           -3.11889498505048        1.93394070248157        0.65291748900594
C           -3.36838421907056        3.28994644110170        0.63922979675376
C           -2.57949736954606        4.14424701868093       -0.12718767911777
N           -2.82752657340330        5.52323945315589       -0.13399782465846
C           -2.96542063908670        6.32504291937527        0.98139929197560
C           -2.85067702797852        5.99791622051351        2.32499181080868
C           -3.01205796503082        7.01017230704366        3.25135061626398
C           -3.27346170137015        8.32112801395898        2.85882408077641
C           -3.36581444402918        8.65701817564509        1.52308771770827
C           -3.20726262107791        7.65688729438071        0.57285406850147
C           -3.21909781470187        7.64728075607705       -0.86302371884541
C           -3.42008808222360        8.62978126713035       -1.82357105551848
C           -3.38671455639906        8.26932954101959       -3.15567454251530
C           -3.17083013080494        6.94611334683481       -3.53449348104438
C           -2.96816171170368        5.95103498973117       -2.59769777326258
C           -2.97767077310777        6.31118981629197       -1.25769248494731
C           -1.54139920021816        3.61096349158487       -0.88709113533949
C           -1.30489056736836        2.25255713294772       -0.89009828949570
C           -2.90345467592693       -0.88662121246409       -0.02741237473410
C           -2.76910115447014       -2.06840332848531        0.70232132776491
C           -3.81487473611761       -2.96281222605910        0.78694219922567
C           -5.02073934948872       -2.70013229319086        0.14152336001887
N           -6.08217582386938       -3.61038726915651        0.22630198954902
C           -7.38214193574167       -3.30569688261735        0.57732423047354
C           -7.93268087109309       -2.09139095518375        0.96161471671568
C           -9.27419526765141       -2.06669146107330        1.29100737179307
C          -10.05509485344756       -3.21971277395684        1.24936016427130
C           -9.50788393708977       -4.43494019811246        0.88980538748789
C           -8.16122603872428       -4.48541797112927        0.55464467649170
C           -7.27929677071338       -5.54924062461844        0.16421339495916
C           -7.45813534166834       -6.91014184846268       -0.04647413097601
C           -6.37495154732667       -7.66529864322305       -0.44887532632255
C           -5.12884828956380       -7.07738880393672       -0.65524007221523
C           -4.92597367325786       -5.72598948474417       -0.45199994190867
C           -6.00542801870928       -4.96573066218667       -0.02523267170482
C           -5.15827001977374       -1.52244611055588       -0.58887251911545
C           -4.11355543787320       -0.62618061769631       -0.67124096617105
C            0.50944573935550        0.20127316854135        0.46534059266976
C            1.80199021864469       -0.27293193360032        0.38831912507633
C            9.36876481204639       -0.92399496932132        1.01914172898925
C            9.89114760253752       -0.03780193993397        1.93944165447534
H           12.88800431016966        2.82832092223969        1.50825038883405
H           12.68437840336252        3.31139159990915        3.25540215786313
H           10.92379572180715        1.69666054691197        3.56316557129687
H           12.07840712615107        1.58078876312919       -0.05961460813027
H           11.14165709831132        0.02235529267204       -1.68978701908440
H            9.87129174988877       -2.78674329475172       -1.32252130481522
H            9.27511379685993       -1.43875062764727       -2.31362378420334
H            7.96077745741971        0.32132202996861       -1.59079177661637
H            5.98283281876505        1.71328816231503       -1.67241900356766
H            3.74317443381105        0.81933979377668       -1.15591685928977
H            6.90481378858158       -4.59220585239464       -0.31503776909407
H            5.55689297890504       -6.56700446217983        0.34935696048481
H            3.14092436588447       -6.36748752275476        0.69288107373882
H            1.98178322015142       -4.21790330531283        0.36589982062840
H            1.27910877454169       -2.94659720046504       -1.61233121393195
H           -1.02986985387454       -2.11367125811673       -1.45975497888247
H           -3.72777586411246        1.28002552576228        1.25933596773466
H           -4.18138991209346        3.69586300920555        1.22196084997434
H           -2.63124063658326        4.98835041432468        2.63868710533724
H           -2.93025353658952        6.78048972362608        4.30363212100828
H           -3.39598700502878        9.08329965853026        3.61393078132911
H           -3.55310007141998        9.67557678372486        1.21815086363192
H           -3.60261883605701        9.65231969888606       -1.52925917232808
H           -3.53838363369921        9.01831853847083       -3.91863975483886
H           -3.16522982744070        6.69167153629885       -4.58424114271205
H           -2.81878551842614        4.92557115541885       -2.90082484025805
H           -0.91845960717279        4.26926298500670       -1.47352730919849
H           -0.50532635291672        1.84596757042244       -1.49128950879222
H           -1.84062522565942       -2.27393730816185        1.21398741632428
H           -3.71039391377938       -3.86276377763141        1.37387003155630
H           -7.33213611105293       -1.19559666574223        1.01315603290311
H           -9.72689931128669       -1.13292860889718        1.59077325013885
H          -11.10083481750677       -3.15818832233100        1.51154600769423
H          -10.10919470501588       -5.33139449287544        0.87228908958269
H           -8.42750615480286       -7.36264995063425        0.09864778010994
H           -6.49197480681388       -8.72570628604050       -0.61601836351061
H           -4.30346589296761       -7.69126648708728       -0.98476555300218
H           -3.96061022529335       -5.27678351484441       -0.63097662750272
H           -6.08244928106946       -1.32424482187399       -1.11034563354577
H           -4.22467025991544        0.27969819735648       -1.24842930867576
H            0.29182918032909        1.08261793355382        1.05023390740719
H            2.59445752822281        0.22867051419022        0.92251145013603
H            8.60717353688642       -1.62993898205605        1.31662536362781
H            9.53197176788031       -0.05790917286315        2.95872065542609
