108
 energy: -171.762244005622 gnorm: 0.000042992527 xtb: 6.7.1 (edcfbbe)
O           -0.00195394365689        4.99345551478964        0.05402676601677
C           -0.00199042001807        3.77892606539865        0.03660635892951
C           -1.26659676917287        3.00102822503664        0.03732116448771
C           -1.37150084916642        1.75890628020890        0.66155732829742
C           -2.57438667715773        1.08174927866436        0.66231574114410
C           -3.68820271870475        1.63060905533072        0.03280250782832
N           -4.91365489038660        0.92162027862284        0.02143818829241
C           -5.01827138943869       -0.23009714693378       -0.75033581396359
C           -3.95455603916883       -0.64073571170505       -1.55841105984479
C           -4.04704606546274       -1.78463088016546       -2.32466659152951
C           -5.20529009927971       -2.54213950498496       -2.31353874501495
C           -6.27186666003112       -2.12605484587672       -1.53999421739510
C           -6.19645093000203       -0.97946141378694       -0.76416728450172
C           -7.42205057678676       -0.57242513851174        0.03132133910757
C           -8.53103541991339       -0.30912336158756       -0.97006072475303
C           -8.32200047087889        0.73289591594768       -1.87062041777475
C           -9.25536694184728        1.06221488604358       -2.83206455074277
C          -10.43830257772086        0.34389771983778       -2.91457362819646
C          -10.66575886488727       -0.69168921354029       -2.03464555734975
C           -9.71822114489522       -1.01978311474685       -1.06675567855914
S          -10.14662940364904       -2.37235371227447       -0.01992900808086
C           -8.79526647285650       -2.47894735722712        1.10726716232587
C           -8.91496805384917       -3.46062434225854        2.08930669959873
C           -7.91816639472641       -3.64280611277524        3.02286331958485
C           -6.78870807665583       -2.84000025185881        2.98036480240395
C           -6.67715483385680       -1.86894250274010        2.00635924466358
C           -7.67261467780553       -1.66606455425693        1.05323156282038
C           -7.19756071402663        0.71332981016642        0.80337628568897
C           -8.24417135908350        1.20395816862988        1.56908550204142
C           -8.10302620918203        2.34913461240071        2.32909605127559
C           -6.88389860691636        3.00452548953172        2.33757568573621
C           -5.83138167459292        2.53073242773836        1.58117797135270
C           -5.97673928166252        1.39080349750586        0.78620814666052
C           -3.59233292243075        2.87787551107915       -0.57822307929878
C           -2.39352340649389        3.56008090135187       -0.56371973039600
C            1.26267590683455        3.00131411811912        0.01455207925399
C            1.37058539003486        1.78249522859141       -0.65347696943299
C            2.57295671178438        1.10458788547241       -0.67106572634875
C            3.68287356861292        1.62885473852221       -0.01429595512597
N            4.90735290472957        0.91806518050978       -0.01843583327914
C            5.00504964457389       -0.25996565555365        0.71357576805959
C            3.93206386321966       -0.70208136827420        1.49226630015240
C            4.01797207175891       -1.87237625778344        2.21838427518603
C            5.17871792341228       -2.62577713324412        2.19606929148969
C            6.25412301235262       -2.17945193944219        1.45218410094018
C            6.18523561320091       -1.00634464364734        0.71643385134049
C            7.41990682942312       -0.56884247464975       -0.04815099349341
C            7.69022694081203       -1.62880267843751       -1.09997332450996
C            6.70435597608412       -1.81320683225589       -2.06671914186808
C            6.83353918218904       -2.75361592662837       -3.06821288238916
C            7.97147945072527       -3.54345656243182       -3.12525399312506
C            8.95933477360089       -3.37867371620412       -2.17904631724307
C            8.82205674447727       -2.42760967576425       -1.16956002646170
S           10.16483066957139       -2.33869879489511       -0.03063494719395
C            9.70866445155791       -1.03028659834365        1.05963516913408
C           10.64228490313961       -0.72573971457313        2.04852838196401
C           10.39309759292455        0.27462360086383        2.96264174926378
C            9.20191792412997        0.98065687874704        2.89392302530606
C            8.28245876822963        0.67489624555355        1.91153293121728
C            8.51370431035654       -0.33109280891378        0.97609756437431
C            7.19998696059708        0.73962893200145       -0.78247643923259
C            8.25323988332681        1.25660655992598       -1.52126938433420
C            8.11743693119882        2.42564524565233       -2.24504403162806
C            6.89724960031897        3.07912114926135       -2.24425548042185
C            5.83807901848693        2.57905862686310       -1.51454154258304
C            5.97761212469732        1.41392284050336       -0.75589649041995
C            3.58416094480058        2.85362888006466        0.64020160447453
C            2.38618509401669        3.53749707491551        0.64210357823089
H           -0.51874022497981        1.33623646215510        1.17178316247896
H           -2.66181213804217        0.12113100804300        1.14838993319593
H           -3.04989508260740       -0.05316694981095       -1.59271039090854
H           -3.20846954347628       -2.08077956512532       -2.93715940186045
H           -5.28119443697547       -3.43898070522544       -2.90816404510549
H           -7.18843440953765       -2.69809416332082       -1.53582797959924
H           -7.39958295298706        1.29210325252886       -1.80792178090474
H           -9.06221858636733        1.87517777257401       -3.51531506375220
H          -11.17823527962043        0.58981759790099       -3.66092175548544
H          -11.57901877848672       -1.26609936058538       -2.08005825846986
H           -9.80355622770628       -4.07405377592757        2.10172492473899
H           -8.02037740648585       -4.40599941917567        3.77925060786085
H           -5.99873899653268       -2.97125807052103        3.70415757871095
H           -5.79674476460012       -1.24339951614407        1.97532166905734
H           -9.18369087591372        0.66999655724283        1.56728097678793
H           -8.92944002168536        2.71826001142547        2.91598514827780
H           -6.74543693659958        3.88988225639410        2.93980288060967
H           -4.88388272356977        3.04614676961026        1.61342811701644
H           -4.46224754369226        3.30349282878582       -1.05598705753662
H           -2.30414602009111        4.53032406760410       -1.02871849099283
H            0.52060351952703        1.37941700309922       -1.18383946208028
H            2.66279936793525        0.16218008279583       -1.19115193667243
H            3.02504780945091       -0.11878222238989        1.53541373835719
H            3.17209206118635       -2.19260053565115        2.80830858022432
H            5.24953693125300       -3.54301836797774        2.75937575879282
H            7.17265141606435       -2.74825802508639        1.43995518270381
H            5.81733056173358       -1.19775704489961       -2.02405023199861
H            6.05065589324842       -2.87124590444470       -3.80197006050164
H            8.08722360452383       -4.28308551485933       -3.90280073822281
H            9.85438174114849       -3.98230563024637       -2.20258343473721
H           11.56229692383798       -1.29006613003534        2.08264598644223
H           11.12257133592195        0.50275499922948        3.72476586622921
H            8.99172129808965        1.76598540058044        3.60393849028207
H            7.35381225136337        1.22477794532473        1.85936842839614
H            9.19387601558851        0.72466669083151       -1.52717662318649
H            8.94898603310649        2.81504770481993       -2.81121250661576
H            6.76322156106275        3.98360943232816       -2.81839940306274
H            4.88994867745725        3.09373706156593       -1.53937283148099
H            4.45125656043264        3.26083573922158        1.13869916064945
H            2.29483012151276        4.49057926570821        1.14096395872746
