108
 energy: -171.686163792485 gnorm: 0.000150575610 xtb: 6.7.1 (edcfbbe)
O           -0.00215569058842        4.74397653969190        0.06830873782162
C           -0.00188972204857        3.47631464953710        0.04879879129199
C           -1.25913943859181        2.75796829355071       -0.01583724065477
C           -1.43345412779574        1.47437107899644        0.53235191132822
C           -2.66473821938416        0.86459114636967        0.51313457648531
C           -3.76469617145575        1.51044290334081       -0.05511880749481
N           -5.03193917821664        0.86653922662720       -0.06405898341223
C           -5.20594763585618       -0.26213279529937       -0.84516188948058
C           -4.18004944122591       -0.70131388176225       -1.69225770911816
C           -4.33135750485677       -1.83972156757655       -2.45349454799718
C           -5.51039897111723       -2.56725283499527       -2.40029492500356
C           -6.54200473237108       -2.12109242054464       -1.59610858042217
C           -6.40993533484368       -0.97647559024741       -0.82569275867118
C           -7.59861332410489       -0.52319493618389       -0.00394703447091
C           -8.72133199332351       -0.23148495535984       -0.98335890247313
C           -8.48648395561478        0.77735370430272       -1.91499527418845
C           -9.42728964441727        1.12447844772034       -2.86283194846298
C          -10.64304471004687        0.45887557148908       -2.89918163844510
C          -10.89673642992511       -0.54123400924000       -1.98613894512842
C           -9.94206275875731       -0.88786663195754       -1.03150602826283
S          -10.40895882141164       -2.18723933748188        0.06452785096057
C           -9.02591799754904       -2.34584650517764        1.14559410706057
C           -9.16216628441984       -3.30305020422718        2.14972687495645
C           -8.14443323639237       -3.52166302075919        3.05220902843884
C           -6.97569063794991       -2.78220570487475        2.95510233802733
C           -6.84700962673251       -1.83528426571332        1.95967769815814
C           -7.86441471140257       -1.59537532052188        1.03866261343063
C           -7.30975634781549        0.75602705650461        0.75364004917093
C           -8.32332368134474        1.30132474766839        1.52584699452951
C           -8.11390846545523        2.43605807801073        2.28653360637768
C           -6.85712109679633        3.02126775635921        2.29526398247390
C           -5.83732886645132        2.49547523085711        1.53213636807743
C           -6.05115009163573        1.36952584909340        0.72617426695268
C           -3.61199765823957        2.79503520721422       -0.58273250353370
C           -2.38924352341901        3.41561077309184       -0.54293818804764
C            1.25570814631848        2.75689178539986        0.09141316951129
C            1.43074447494370        1.49102174271017       -0.49633277919286
C            2.66226703000732        0.88142028976342       -0.49558304573892
C            3.76174233793656        1.50972170684540        0.09293325917022
N            5.02919182154960        0.86624913101598        0.08251908698150
C            5.20310139302678       -0.28617657636873        0.82817057443734
C            4.17691305091567       -0.75172731854036        1.66070893706489
C            4.32808765084540       -1.91328959326397        2.38615458033942
C            5.50728756571015       -2.63860385731897        2.31082822692526
C            6.53917831664438       -2.16739226285198        1.52143123535832
C            6.40724484770911       -0.99933448220556        0.78701801482285
C            7.59619200476721       -0.52041999537978       -0.01966677535287
C            7.86252980862855       -1.55946259984500       -1.09517403238038
C            6.84612322597350       -1.76953730346285       -2.02453919219414
C            6.97532051393173       -2.68492316589169       -3.04897784973095
C            8.14358939622715       -3.42196851783541       -3.16773136950349
C            9.16032288012075       -3.23261791178304       -2.25753869551466
C            9.02353607123601       -2.30725065220226       -1.22406529506506
S           10.40520785776622       -2.18395066683089       -0.13666303121940
C            9.93862071285884       -0.91800293977748        0.99794425837054
C           10.89287444195097       -0.60133524115307        1.96334400277355
C           10.63930333815829        0.37075075116117        2.90620243724217
C            9.42409281693857        1.03812699606369        2.88925774089073
C            8.48371824217008        0.72077137585210        1.93061590927580
C            8.71846687483528       -0.25943002395876        0.96887492425234
C            7.30747948125800        0.78184680389334       -0.73695596248444
C            8.32136911979446        1.35125849336972       -1.49112017485088
C            8.11214127870236        2.50920303444577       -2.21603810760085
C            6.85521672742777        3.09411741554552       -2.20721350923981
C            5.83509512113032        2.54447980224402       -1.46152076465308
C            6.04871921803179        1.39392675427406       -0.69103554387024
C            3.60832945240011        2.77726635120529        0.66009766255594
C            2.38534692452187        3.39831762075667        0.63907545854823
H           -0.60388917604236        0.97877424921896        1.01341935945507
H           -2.79621085630257       -0.11549801800249        0.95054453394357
H           -3.26384049876768       -0.13564485061100       -1.75270995675730
H           -3.52438621486710       -2.15994104893959       -3.09509841627685
H           -5.62887251271231       -3.46363544849083       -2.98861001638871
H           -7.47397455757169       -2.66671988804034       -1.56346081863932
H           -7.53865210508716        1.29550118401369       -1.88904028493190
H           -9.21381717877572        1.90991626357778       -3.57141921797843
H          -11.38827545970651        0.71847901476525       -3.63537555692684
H          -11.83615481073820       -1.07350567199280       -1.99465402638796
H          -10.08111009363115       -3.86735132338332        2.20442424674753
H           -8.26075118913705       -4.26397147190462        3.82694721758925
H           -6.16880711508046       -2.94255375199270        3.65363346546013
H           -5.93594050382238       -1.25902569981500        1.88811030939665
H           -9.29064984093533        0.81978314918532        1.53017110670369
H           -8.91610515603381        2.85010036739877        2.87700244798069
H           -6.66785910727990        3.89272055161921        2.90336889220917
H           -4.86116243199579        2.95230417718411        1.56132448327218
H           -4.46658860780196        3.29241554319412       -1.01896108444133
H           -2.25976409634248        4.41330643971706       -0.93310865586853
H            0.60155305861031        1.01028954652528       -0.99287874595529
H            2.79430318107132       -0.08456049874172       -0.96316476724751
H            3.26057496757589       -0.18837481068697        1.73836778853413
H            3.52089182688252       -2.25348497450690        3.01710620915979
H            5.62566280383329       -3.55287887155163        2.87095397448787
H            7.47125173711545       -2.71159318333038        1.47222560284246
H            5.93541576341954       -1.19505075648217       -1.93610660930867
H            6.16919991995034       -2.82263502041323       -3.75319632595382
H            8.26030617024539       -4.13973738930699       -3.96519979337124
H           10.07886765870874       -3.79573113335383       -2.32870911755378
H           11.83184948598089       -1.13441135883799        1.95635924871630
H           11.38417776397701        0.60720514347314        3.65051090105813
H            9.21069572111951        1.80178103787267        3.62129449983813
H            7.53630397096829        1.24022275338271        1.91977245520966
H            9.28880551812227        0.87028020189639       -1.50992901773289
H            8.91458625957846        2.94169669363775       -2.79278339402778
H            6.66609639645372        3.98411333980624       -2.78788810124639
H            4.85883179779463        3.00177185147390       -1.47700657499224
H            4.46254042541354        3.26118113978145        1.11193345197819
H            2.25532247089418        4.38336742385734        1.05998229736139
