  108
       -171.68225560
 O          0.0103133461        4.5800961711       -0.1282073029
 C          0.0035109326        3.3183861911       -0.0663783804
 C         -1.2636289359        2.6124502122       -0.0350040941
 C         -1.4455605392        1.3411922520        0.5396065407
 C         -2.6865186584        0.7489388020        0.5559230905
 C         -3.7909766332        1.4101508992        0.0176784431
 N         -5.0689640969        0.7805018792        0.0246195760
 C         -5.3536237092       -0.1653857282       -0.9401590201
 C         -4.4022778048       -0.4780580327       -1.9198946452
 C         -4.6703912223       -1.4234504095       -2.8853329455
 C         -5.8924038572       -2.0788333237       -2.9036713503
 C         -6.8426915584       -1.7657675157       -1.9498102785
 C         -6.5927487990       -0.8172646576       -0.9707608783
 C         -7.6859085847       -0.5078845580        0.0321017698
 C         -8.8614090217        0.0469210888       -0.7532757282
 C         -8.6547974053        1.2564211618       -1.4130032218
 C         -9.6458356188        1.8521148464       -2.1661277487
 C        -10.8853536906        1.2408346471       -2.2768757169
 C        -11.1108178231        0.0431786406       -1.6342694328
 C        -10.1049272117       -0.5547696620       -0.8769282856
 S        -10.5381902459       -2.0902784451       -0.1273797455
 C         -9.1107995824       -2.5173058696        0.8141150829
 C         -9.2244679980       -3.6808595698        1.5732560998
 C         -8.1706364375       -4.1197950501        2.3444783920
 C         -6.9892578022       -3.3942896892        2.3622213363
 C         -6.8830971951       -2.2425262780        1.6096367105
 C         -7.9362049530       -1.7796083683        0.8238422217
 C         -7.2631007519        0.5576345190        1.0221819953
 C         -8.1688362624        0.9482876531        1.9955446003
 C         -7.8389838917        1.9035011976        2.9389229733
 C         -6.5746846767        2.4731718787        2.9153211020
 C         -5.6596952161        2.0985593760        1.9558394101
 C         -5.9910161846        1.1426049666        0.9867808991
 C         -3.6394528551        2.6971949686       -0.5044744681
 C         -2.4041985707        3.2905837285       -0.5172118625
 C          1.2618538976        2.5970134127       -0.0344856964
 C          1.4210490842        1.2682884145       -0.4684782555
 C          2.6581492982        0.6679397480       -0.4543023650
 C          3.7807423355        1.3759011298       -0.0246080739
 N          5.0572371874        0.7419081341       -0.0082599954
 C          5.3977958641       -0.0460884235        1.0723830837
 C          4.5019700781       -0.2042623428        2.1377420562
 C          4.8303676239       -0.9883721469        3.2218733758
 C          6.0577106509       -1.6320692785        3.2751063633
 C          6.9512815586       -1.4738187492        2.2321381188
 C          6.6403578782       -0.6894393233        1.1328278577
 C          7.6721507457       -0.5487226693        0.0332472604
 C          7.8835610036       -1.9271781461       -0.5686573276
 C          6.7462074581       -2.5943587150       -1.0179558789
 C          6.8185231164       -3.8432986621       -1.6004739549
 C          8.0504802590       -4.4617714016       -1.7488081626
 C          9.1885914517       -3.8192218616       -1.3130741488
 C          9.1093721121       -2.5568950245       -0.7272867159
 S         10.6501254423       -1.8568349437       -0.2352475812
 C         10.1915745021       -0.3601851539        0.5756175865
 C         11.2413815051        0.3474369964        1.1585925825
 C         11.0065364541        1.5394867105        1.8083083080
 C          9.7134585091        2.0344947269        1.8798456573
 C          8.6778666120        1.3278779362        1.3031173584
 C          8.8919316536        0.1196497586        0.6434711636
 C          7.1892639496        0.3505118574       -1.0875674184
 C          8.0328018032        0.5793221931       -2.1630652039
 C          7.6454659390        1.3828010775       -3.2192180017
 C          6.3866379534        1.9645961143       -3.2045571345
 C          5.5328114694        1.7489853362       -2.1452012328
 C          5.9211974989        0.9448740878       -1.0657839250
 C          3.6498962591        2.7113111957        0.3634556863
 C          2.4179612786        3.3118475242        0.3472442946
 H         -0.6163789314        0.8389195821        1.0137669451
 H         -2.8210862221       -0.2283971928        0.9986835700
 H         -3.4532355627        0.0345537774       -1.9162081151
 H         -3.9224432782       -1.6490063556       -3.6303076900
 H         -6.1046392301       -2.8210087437       -3.6572426610
 H         -7.8013480634       -2.2638091520       -1.9624634453
 H         -7.6893160701        1.7340095135       -1.3291755308
 H         -9.4530973102        2.7891417942       -2.6654446586
 H        -11.6706355081        1.6954276042       -2.8611364582
 H        -12.0672535707       -0.4526791824       -1.7067689827
 H        -10.1539569063       -4.2294240079        1.5421362459
 H         -8.2684229967       -5.0224930366        2.9278560759
 H         -6.1541452476       -3.7260978960        2.9599295942
 H         -5.9611893448       -1.6793596823        1.6248430913
 H         -9.1477153029        0.4906963805        2.0097410562
 H         -8.5577434072        2.1965925742        3.6880509975
 H         -6.2990098017        3.2132732903        3.6510241308
 H         -4.6758963111        2.5405902111        1.9480420792
 H         -4.5039728261        3.2129357383       -0.8974202802
 H         -2.2673301456        4.2855486299       -0.9120006080
 H          0.5766270757        0.7231820525       -0.8612498335
 H          2.7754531782       -0.3524813558       -0.7922252767
 H          3.5486777672        0.2994774221        2.1043230311
 H          4.1253106378       -1.0967238992        4.0320698821
 H          6.3168519380       -2.2469959581        4.1227040269
 H          7.9134579187       -1.9646268342        2.2659396434
 H          5.7851130788       -2.1136013708       -0.9061329908
 H          5.9182179295       -4.3325363582       -1.9393468095
 H          8.1226637310       -5.4381443015       -2.2029290272
 H         10.1594610092       -4.2796018071       -1.4194865148
 H         12.2399054726       -0.0571692818        1.0876169330
 H         11.8263031200        2.0804915704        2.2555774134
 H          9.5138441039        2.9685801941        2.3820106265
 H          7.6714530611        1.7169533651        1.3589609836
 H          9.0096236214        0.1179496509       -2.1697704887
 H          8.3167497421        1.5504717455       -4.0468626027
 H          6.0680322468        2.5898380954       -4.0246385606
 H          4.5534764422        2.2008253903       -2.1417602166
 H          4.5279301531        3.2598546578        0.6732072601
 H          2.2973241495        4.3445078787        0.6363602931
