108
 energy: -171.687177811788 gnorm: 0.000061847301 xtb: 6.7.1 (edcfbbe)
O            0.00557470725015        4.60175954646406       -0.13064016083602
C            0.00278148803196        3.33370830898918       -0.07854816006784
C           -1.26324911335807        2.62766311131539       -0.05814639085706
C           -1.43858816869701        1.35522992852031        0.51390126818978
C           -2.67747509623783        0.75785815074861        0.52952004415001
C           -3.78354797342558        1.41469774009113       -0.00841066388158
N           -5.06008504142559        0.78222505517230        0.00629041321753
C           -5.34693143768568       -0.16975111627461       -0.95243474371589
C           -4.40092808983759       -0.48365190997339       -1.93641454981188
C           -4.67095222727426       -1.43647935077290       -2.89429646217114
C           -5.88977895088115       -2.09754626912819       -2.90040947609485
C           -6.83522928484783       -1.78257408029066       -1.94237567635418
C           -6.58312447350942       -0.82693129844350       -0.97082665703916
C           -7.67147829588790       -0.51544632435516        0.03684112276343
C           -8.84790467507203        0.04443334404907       -0.74352025137650
C           -8.64100335390500        1.25614483661708       -1.39907911565138
C           -9.63296033518589        1.85646442495555       -2.14727377180010
C          -10.87359299381381        1.24742845731845       -2.25743318772630
C          -11.09933937877184        0.04760050707677       -1.61890037523341
C          -10.09271283821719       -0.55472464007984       -0.86615542428269
S          -10.52692313615119       -2.09182285064583       -0.12012518009001
C           -9.09978192129828       -2.52143044418927        0.82092037051920
C           -9.21522135165929       -3.68395834380588        1.58126297252325
C           -8.16089384846873       -4.12551345853246        2.35040161052151
C           -6.97712714464973       -3.40390115987051        2.36458216048066
C           -6.86951200561483       -2.25269036094098        1.61136295309274
C           -7.92324109614954       -1.78688288377116        0.82815409675981
C           -7.24227001278352        0.54820743915709        1.02640921604682
C           -8.13975160510734        0.93279495584735        2.00983711933316
C           -7.80469009830566        1.88758735643027        2.95174798476506
C           -6.54366062610048        2.46330230296905        2.91593578034334
C           -5.63693104758405        2.09474967462328        1.94607248878032
C           -5.97374447634426        1.13901011859865        0.97918478709560
C           -3.63694503406540        2.69946200606595       -0.53414343983169
C           -2.40360143052314        3.29929235626174       -0.54623604801400
C            1.26282671673994        2.61920519169462       -0.04296393164392
C            1.42404238940577        1.29750403427649       -0.49508919374040
C            2.66032542045430        0.69493386514123       -0.47481893950686
C            3.77736015733212        1.39366969433482       -0.01918957823568
N            5.05275232913305        0.75725224884886       -0.00096669256316
C            5.38722997239415       -0.03969058065643        1.07551536007051
C            4.48905317979792       -0.19987533110000        2.13812426131815
C            4.81015004928810       -0.99582414315178        3.21605828278129
C            6.03226838145055       -1.64929153426279        3.26504196493107
C            6.92851441535674       -1.48823906941500        2.22478671003520
C            6.62492988342584       -0.69190761301177        1.13205169599402
C            7.65896023484752       -0.54937873612152        0.03434934516326
C            7.87003298229458       -1.92732010220349       -0.56813689322610
C            6.73474031859236       -2.58261969516991       -1.03966092889265
C            6.80519315547858       -3.83251167323750       -1.62023589251569
C            8.03323753961211       -4.46410948545736       -1.74341403932862
C            9.16932832405288       -3.83321839278861       -1.28574094929294
C            9.09203823766958       -2.56969037468307       -0.70232710039116
S           10.63012435427128       -1.88518159943752       -0.18026582550575
C           10.17379322795358       -0.37246940749968        0.60170783039349
C           11.22219152072100        0.33578152581576        1.18641215142425
C           10.98885802090038        1.53785848261668        1.81797820709716
C            9.69854157519533        2.04238073712093        1.86995056993802
C            8.66444973991835        1.33563215609896        1.29080113148863
C            8.87723025267961        0.11791084408401        0.64839812634055
C            7.17896311298813        0.35244653815435       -1.08569858807829
C            8.02176329455689        0.57592497454466       -2.16292996594435
C            7.63736863265100        1.38179864043253       -3.21834457724023
C            6.38292955579549        1.97245442596853       -3.20038712470415
C            5.53025426103367        1.76286133532909       -2.13864126621170
C            5.91546370097393        0.95529167052706       -1.06115590334787
C            3.64410796097997        2.72127193703081        0.39011126041276
C            2.41304904342515        3.32556382285574        0.36743192157419
H           -0.60665995175669        0.85575895432682        0.98598695604795
H           -2.80770578668820       -0.22014527233548        0.97174076538451
H           -3.45386974326927        0.03275749609964       -1.94243470679012
H           -3.92665354133700       -1.66332321171825       -3.64257923020218
H           -6.10332108215089       -2.84578985949623       -3.64757975822098
H           -7.79161435217508       -2.28507835828621       -1.94550724700822
H           -7.67458850035403        1.73191514506665       -1.31586723040191
H           -9.44003144373450        2.79526182006006       -2.64328664475619
H          -11.65948020799991        1.70538209173774       -2.83829444866396
H          -12.05670671710059       -0.44649858783392       -1.69115996052287
H          -10.14652031255521       -4.22963461227780        1.55297774441747
H           -8.26039048525724       -5.02711801358119        2.93519829877427
H           -6.14159968807353       -3.73802443598895        2.96039674505629
H           -5.94604683436429       -1.69194620296745        1.62385158349720
H           -9.11635334440274        0.47075717291512        2.03300198879638
H           -8.51697191461717        2.17595794848780        3.70884107217206
H           -6.26373133091893        3.20361435410546        3.64986186876838
H           -4.65567163698066        2.54223224284754        1.92924010066763
H           -4.50272657950765        3.21128631432717       -0.92921253348389
H           -2.27262494486903        4.29395432190201       -0.94377454061283
H            0.58290942834728        0.76031477140552       -0.90533503590698
H            2.77996114842336       -0.32013888369048       -0.82732784666215
H            3.53922981976715        0.31075930311393        2.10786983395533
H            4.10318746152879       -1.10590327869429        4.02440745544072
H            6.28539220212950       -2.27422808795035        4.10712909666622
H            7.88658217332881       -1.98718323132527        2.25526957657467
H            5.77692069802103       -2.09150999626548       -0.94627774633604
H            5.90665245162271       -4.31258244631581       -1.97647893625085
H            8.10399104429128       -5.44199857024292       -2.19453063842610
H           10.13709090737813       -4.30418817720284       -1.37233981907928
H           12.21858039383743       -0.07667868609920        1.13171127866697
H           11.80769834428928        2.07925207398784        2.26645477467359
H            9.50001144208273        2.98365311563488        2.35902325774951
H            7.66010383013595        1.73172487444784        1.33141904736431
H            8.99534429592120        0.10771859543660       -2.17140364391181
H            8.30768981531788        1.54497000946904       -4.04766726172400
H            6.06626103336103        2.59980992341294       -4.01967289306662
H            4.55420709958665        2.22201751275358       -2.13305800277644
H            4.51843915004846        3.26295494922923        0.72133107615363
H            2.29213923894858        4.35323518278753        0.67377926431555
