108
 energy: -171.762103237544 gnorm: 0.000065521613 xtb: 6.7.1 (edcfbbe)
O            0.04585810118554        4.75717022089232        0.92174077713137
C            0.03318216008456        3.56730941026554        0.67807155644658
C           -1.24075266148548        2.81650822715266        0.54424266214834
C           -1.35442846326292        1.47608447826651        0.91003885586758
C           -2.56801441080959        0.82727301839936        0.79969700293638
C           -3.68389763237874        1.50544262525576        0.31756973761893
N           -4.92235561345115        0.83001694464141        0.19155937625152
C           -5.07270780924921       -0.11986823444102       -0.81190148480104
C           -4.03502488549270       -0.36840360212530       -1.71433034624301
C           -4.17461426303760       -1.31182916278287       -2.71171733732835
C           -5.35453794423522       -2.02353191740632       -2.84126030257682
C           -6.39459873510003       -1.76344496014439       -1.96951107241148
C           -6.27191273263517       -0.81943549280228       -0.96163915772633
C           -7.47028646797349       -0.57067076373349       -0.06597414896876
C           -8.58640804369021       -0.05059503124533       -0.95237340399495
C           -8.33606263387624        1.13745215195718       -1.63533358875674
C           -9.27499645015713        1.70949923266501       -2.46903237685236
C          -10.50574634723452        1.09465757828014       -2.64037423981478
C          -10.77481756535842       -0.08156848381911       -1.97516842769490
C           -9.82184800314400       -0.65404592528653       -1.13464429526644
S          -10.31048547273036       -2.15801728440857       -0.35486697727750
C           -8.91182635647888       -2.60232419096095        0.62206539738163
C           -9.04716606358394       -3.77970681758242        1.35550458659925
C           -8.01942143155755       -4.22843094589391        2.15596020949267
C           -6.84304481093269       -3.49848728712826        2.22932858114096
C           -6.71564547994752       -2.33361708817599        1.50075506537945
C           -7.74103458391714       -1.86126084030832        0.68467223956902
C           -7.19131131487247        0.49739415920649        0.97419389167488
C           -8.20437223200659        0.82321800135652        1.86293706756043
C           -8.01322424402370        1.76436167619539        2.85632738521351
C           -6.77807254542806        2.37806337461879        2.97311481689754
C           -5.75826582335518        2.06610787319478        2.09729288883424
C           -5.95378684225457        1.13627352626227        1.07282138831075
C           -3.57928242578396        2.84837982367225       -0.03367780790781
C           -2.36904180257257        3.49836100231403        0.09008134634867
C            1.29079228823747        2.79631935338185        0.50590314115525
C            1.39095943907865        1.72985147228917       -0.38585286767309
C            2.58734693585083        1.05566061339704       -0.53069746779033
C            3.69907915813886        1.43455432215446        0.21633883257591
N            4.92034184307015        0.73027167569549        0.08150311700195
C            5.35781928036155       -0.06613805803351        1.13403280080791
C            4.56962441074744       -0.22580932544337        2.27697677022772
C            4.99784321287667       -1.00915913253483        3.32920471595639
C            6.21668016032601       -1.66168073786269        3.26466632481175
C            6.98731106026190       -1.53307833410204        2.12505899694746
C            6.57253729314469       -0.75059378162690        1.05828754454812
C            7.45898639660440       -0.68933232597566       -0.17107714468714
C            7.54186134626365       -2.09932582864586       -0.72541879823134
C            6.34937331090185       -2.66395566203846       -1.17214628820481
C            6.29807435936887       -3.94197254025815       -1.68994732895322
C            7.45881737217113       -4.69541715418568       -1.77389872610482
C            8.64952808557746       -4.15761680552269       -1.33646727358359
C            8.69394904451236       -2.86680991919170       -0.81279384577853
S           10.28524713613915       -2.32135044553517       -0.28531014337990
C           10.00964525529806       -0.66158591353161        0.24213233834473
C           11.14590963066620        0.02507209686872        0.66595648562594
C           11.05361390506979        1.32734448724173        1.10641669833640
C            9.81762752182926        1.95500710026525        1.12597781693617
C            8.69675194761501        1.26969751894647        0.70407328105601
C            8.76638800133346       -0.04674428890913        0.25381946870280
C            6.86565329761310        0.18733824638531       -1.25685108930649
C            7.57653667619528        0.33107423444747       -2.43849238629172
C            7.11798351924798        1.14223300143904       -3.45870036424479
C            5.93433668702002        1.83816647606729       -3.28401270043271
C            5.21323890267350        1.70657784162890       -2.11476715349385
C            5.65550669434629        0.86409339558633       -1.09140184183860
C            3.60874981200208        2.51132297631469        1.09392134048445
C            2.41609495999375        3.19126288097740        1.22769152051324
H           -0.49990076718744        0.94911963233240        1.30789408280690
H           -2.66249403932187       -0.21008208399868        1.08541567828130
H           -3.11382476793639        0.18879477134656       -1.63813432996844
H           -3.35569406786087       -1.48640122730878       -3.39360513118460
H           -5.46719141838865       -2.76392918100148       -3.61765259169132
H           -7.32754361833205       -2.29936519500794       -2.06930384614420
H           -7.37678891403574        1.61674185132754       -1.50292809010149
H           -9.04938422763602        2.63107484294051       -2.98366414765557
H          -11.25064254142807        1.53009186294667       -3.28885073405981
H          -11.72603718465029       -0.57888846454853       -2.09305071842935
H           -9.97281465664510       -4.33096047715508        1.28254867696377
H           -8.13410505704385       -5.14167595622842        2.71975053665233
H           -6.02912467053460       -3.83696386793884        2.85231983005192
H           -5.79886704511876       -1.76484147729642        1.55954298887635
H           -9.15789734622392        0.32328782357851        1.77052721638462
H           -8.81416534102119        2.00773373319557        3.53672120478401
H           -6.60157420776701        3.10314288016120        3.75338625810532
H           -4.79737204661355        2.54352194005715        2.21293052359848
H           -4.45146018087618        3.37200193329103       -0.39599604628947
H           -2.27178192727919        4.54084775634521       -0.17328104880213
H            0.53734477793346        1.44021388123153       -0.98066481739993
H            2.67070084667174        0.23093958402637       -1.22325540714485
H            3.60978368219414        0.26375489448343        2.33918155945990
H            4.37075107068034       -1.11127259713920        4.20231931796452
H            6.55770053018174       -2.27161203848530        4.08645389105516
H            7.93254537533375       -2.05156353159382        2.05402633995096
H            5.44399147218346       -2.07797829328627       -1.10561909011557
H            5.35729545531609       -4.35037124504257       -2.02651731066619
H            7.43492117262296       -5.69627272143176       -2.17732249763009
H            9.56629507450797       -4.72562403671331       -1.39051882129458
H           12.09737903636603       -0.48501932423886        0.64221084743568
H           11.93952751103948        1.85047213432701        1.43273406235476
H            9.72905871419192        2.97460480681592        1.46890841538210
H            7.73434013934148        1.76049186980185        0.71920339846116
H            8.50895438409536       -0.20331951972866       -2.55178603115231
H            7.68284566235886        1.23946799020006       -4.37255882259374
H            5.56814390409589        2.49353605028859       -4.06004504830698
H            4.30165131871821        2.27048168308277       -1.98978404468235
H            4.47787883315028        2.80654732108946        1.66288739586822
H            2.33330395115480        4.03565825933651        1.89528071163642
