  69
  -112.630582634600       0.452658427265435      !
 C          6.4963606011       -0.8334876054        1.7140231284
 C          6.1576297835       -0.5021543785        0.2575307971
 C          6.5130209684       -1.6688429212       -0.6684163166
 C          6.9138411503        0.7525710971       -0.1728379125
 N          4.7103563929       -0.2428781392        0.1542204065
 C          3.7701868708       -1.1656309421        0.5010633024
 O          3.9852186280       -2.2737658528        0.9447859125
 C          2.4101175087       -0.6242704113        0.2563596987
 C          1.2266091082       -1.2733788803        0.5646389991
 C          0.0121058022       -0.6463877218        0.2978848810
 N         -1.1788595160       -1.2712763714        0.6566593996
 C         -1.5990665195       -2.5207051788        0.2220430779
 C         -0.9053490336       -3.4860965902       -0.4897745089
 C         -1.5824932897       -4.6411933058       -0.8364191217
 C         -2.9180437342       -4.8308581618       -0.4933019352
 C         -3.6172484233       -3.8636469217        0.2018543150
 C         -2.9574899996       -2.6975121901        0.5632266807
 C         -3.3698810638       -1.5053377992        1.2534611075
 C         -4.5645856028       -1.0975346361        1.8292544225
 C         -4.6096325440        0.1326672680        2.4561322142
 C         -3.4742468203        0.9319872058        2.5506645601
 C         -2.2724017376        0.5425334416        1.9899384208
 C         -2.2428138240       -0.6586027631        1.2999248298
 C         -0.0034000622        0.6259693648       -0.3289065304
 N         -1.2054018468        1.2380376860       -0.6654086952
 C         -2.2775177598        0.6113427796       -1.2827239212
 C         -2.3079368525       -0.5900241373       -1.9720325171
 C         -3.5182960418       -0.9957368714       -2.5022855555
 C         -4.6615904292       -0.2119229816       -2.3786760161
 C         -4.6171047665        1.0194471010       -1.7538966347
 C         -3.4135554750        1.4434636449       -1.2091723380
 C         -2.9993846298        2.6420796427       -0.5306806871
 C         -3.6659573939        3.7996963887       -0.1551336513
 C         -2.9633316905        4.7772958065        0.5219913220
 C         -1.6180659546        4.6050830652        0.8344862966
 C         -0.9338537571        3.4582723697        0.4734346344
 C         -1.6309409271        2.4834860715       -0.2221786397
 C          1.2023892704        1.2734856486       -0.6130306632
 C          2.3811232865        0.6383075119       -0.3101243301
 S          4.0593949285        1.1812249300       -0.5270032145
 O          4.3494529863        2.3073544831        0.3062540085
 O          4.4158027194        1.2706762258       -1.9101410428
 H          5.9765388874       -1.7337885456        2.0285898836
 H          6.2021823867       -0.0105279839        2.3617872111
 H          7.5666628300       -0.9928810152        1.8122418768
 H          7.5813242052       -1.8621141653       -0.6236076811
 H          5.9811387895       -2.5660115326       -0.3636564509
 H          6.2409928027       -1.4250750381       -1.6932567586
 H          6.6521498964        1.5941143898        0.4623377077
 H          6.6746505325        1.0104697310       -1.2004723116
 H          7.9831984320        0.5710869327       -0.0954936813
 H          1.2534665626       -2.2384414726        1.0461309860
 H          0.1263385423       -3.3446742218       -0.7754502055
 H         -1.0627523607       -5.4104352521       -1.3875868291
 H         -3.4117441324       -5.7463976782       -0.7820020680
 H         -4.6561806191       -4.0042984759        0.4573243052
 H         -5.4358808791       -1.7329119226        1.7890217034
 H         -5.5325504200        0.4740747284        2.8997810683
 H         -3.5282489020        1.8742415820        3.0746833892
 H         -1.3889097755        1.1532067400        2.0964440799
 H         -1.4193207747       -1.1887863872       -2.1000976260
 H         -3.5729070001       -1.9386669570       -3.0249055187
 H         -5.5907011913       -0.5658168937       -2.7988972775
 H         -5.4952800618        1.6433836308       -1.6920573742
 H         -4.7124884845        3.9255639143       -0.3860025184
 H         -3.4618217327        5.6870344198        0.8205859999
 H         -1.0954381916        5.3812461885        1.3730137190
 H          0.1053737603        3.3306697009        0.7384340586
 H          1.2003272443        2.2380945565       -1.0942702170
  69
  -112.630331399100       0.346985054102190      !
 C          6.9026769140        0.5037105818       -0.5703364020
 C          6.1413187231       -0.4698354913        0.3266489797
 C          6.5858109427       -0.2798039178        1.7796542394
 C          6.3808688050       -1.9089018749       -0.1390185482
 N          4.6993765401       -0.1834592656        0.2190083529
 C          3.7582869755       -0.8305575695        0.9620522367
 O          3.9701438259       -1.6590736519        1.8218468327
 C          2.3991416413       -0.3895043597        0.5590259526
 C          1.2146568472       -0.8415822194        1.1153127108
 C         -0.0004424825       -0.4048561627        0.5929122480
 N         -1.1887824530       -0.8934094889        1.1305793015
 C         -2.2620989694       -1.3904088681        0.4098264535
 C         -2.3166095797       -1.7861976317       -0.9168903399
 C         -3.5236240898       -2.2585114081       -1.3967471063
 C         -4.6395346621       -2.3642264289       -0.5715436693
 C         -4.5701330833       -2.0305482954        0.7670434582
 C         -3.3701614453       -1.5475634905        1.2690160204
 C         -2.9361679056       -1.1367049811        2.5768639136
 C         -3.5712911519       -1.0459521555        3.8076521303
 C         -2.8540429914       -0.5727562575        4.8890351342
 C         -1.5240587250       -0.1846287122        4.7528316672
 C         -0.8708807160       -0.2641334388        3.5364446488
 C         -1.5834653263       -0.7526105619        2.4530304852
 C         -0.0165173350        0.5202732987       -0.4806451058
 N         -1.2123739675        0.9678539684       -1.0299024626
 C         -1.5706109060        0.8155807308       -2.3639033793
 C         -0.8089203058        0.3820822308       -3.4373261774
 C         -1.4302487217        0.2824296040       -4.6691848615
 C         -2.7771468400        0.5938236030       -4.8303154887
 C         -3.5445567960        1.0045873771       -3.7577618243
 C         -2.9415680027        1.1159539642       -2.5127075275
 C         -3.4289010843        1.4825642887       -1.2101305230
 C         -4.6698365410        1.8761686661       -0.7307439623
 C         -4.7904688225        2.1905995094        0.6090424845
 C         -3.6862601084        2.1588057657        1.4555419272
 C         -2.4393228390        1.7760048967        0.9975120823
 C         -2.3312554808        1.3905728387       -0.3288472235
 C          1.1909793582        0.9719260379       -1.0224891482
 C          2.3694242676        0.5060462514       -0.4958343718
 S          4.0460264908        0.8531477110       -0.9700246832
 O          4.4032118714        2.2099751607       -0.6936643532
 O          4.3313724189        0.3441882407       -2.2773236190
 H          6.7113127696        1.5301465991       -0.2697262054
 H          6.6006063546        0.3874627436       -1.6070631237
 H          7.9688972193        0.3053439491       -0.4911270943
 H          7.6567164698       -0.4472395814        1.8559393358
 H          6.3639070752        0.7330334743        2.1085694569
 H          6.0724566717       -0.9821149270        2.4295553584
 H          5.8395816232       -2.6041417835        0.4973911168
 H          7.4410313986       -2.1420220683       -0.0909353887
 H          6.0393321571       -2.0269077587       -1.1653663712
 H          1.2379942908       -1.5619123192        1.9183246219
 H         -1.4484135736       -1.7360791337       -1.5561400526
 H         -3.5974199224       -2.5545948513       -2.4322417660
 H         -5.5666836536       -2.7321939665       -0.9840204859
 H         -5.4265505705       -2.1453807696        1.4134596138
 H         -4.6059048431       -1.3348128484        3.9106304035
 H         -3.3289461617       -0.4955846958        5.8554510114
 H         -0.9903073414        0.1889521911        5.6137977992
 H          0.1567834682        0.0530693554        3.4379956866
 H          0.2322188808        0.1184596665       -3.3234876949
 H         -0.8560638183       -0.0478785555       -5.5216704828
 H         -3.2255149709        0.5037939746       -5.8080998441
 H         -4.5926836831        1.2306897570       -3.8786010324
 H         -5.5182209897        1.9371076865       -1.3947940559
 H         -5.7499417596        2.4870089216        1.0048861841
 H         -3.8012294343        2.4412351773        2.4910577405
 H         -1.5829383289        1.7836192400        1.6540217358
 H          1.1893199713        1.6928557037       -1.8238801180
  69
  -112.629812417800       0.200356518632374      !
 C          6.8854208823        0.8277578756        0.1914192069
 C          6.1492390559       -0.5109480206        0.1926227034
 C          6.5668436345       -1.3132789877        1.4279023764
 C          6.4499016000       -1.2824114760       -1.0950468126
 N          4.7006371810       -0.2441226930        0.2393432559
 C          3.7605496139       -1.2128721308        0.4295367012
 O          3.9677691521       -2.3792917240        0.6876709751
 C          2.4011975569       -0.6420231144        0.2530929023
 C          1.2156398645       -1.3064654509        0.5175880096
 C          0.0033922066       -0.6622230801        0.2833508798
 N         -1.1897016022       -1.2941891300        0.6199991863
 C         -1.6073780820       -2.5385703762        0.1695459060
 C         -0.9201219799       -3.4844257265       -0.5745093250
 C         -1.5947479445       -4.6378973910       -0.9309616136
 C         -2.9218405238       -4.8455426806       -0.5659592201
 C         -3.6153551214       -3.8973748584        0.1602742092
 C         -2.9581061539       -2.7326970194        0.5310759812
 C         -3.3673599540       -1.5570867681        1.2508317199
 C         -4.5537591412       -1.1729413328        1.8594372733
 C         -4.5979002823        0.0439329500        2.5116722034
 C         -3.4690989004        0.8537246328        2.5964630206
 C         -2.2753435079        0.4874411843        2.0038316429
 C         -2.2468374576       -0.7014678771        1.2925480540
 C         -0.0081292569        0.6372812780       -0.2859664695
 N         -1.2066805307        1.2536765595       -0.6225903987
 C         -2.2629635022        0.6434967862       -1.2827959230
 C         -2.2818155112       -0.5485642386       -1.9886504736
 C         -3.4780788954       -0.9376639213       -2.5616352274
 C         -4.6180055675       -0.1452291819       -2.4654723229
 C         -4.5820882378        1.0790806485       -1.8263969173
 C         -3.3931882579        1.4854033136       -1.2376009674
 C         -2.9895780684        2.6751560458       -0.5375002845
 C         -3.6546012716        3.8408189142       -0.1847369976
 C         -2.9639250360        4.8098965986        0.5164802429
 C         -1.6337519929        4.6191831102        0.8786763281
 C         -0.9517482198        3.4638462859        0.5413317730
 C         -1.6341147557        2.4999272412       -0.1837621512
 C          1.1994911238        1.3028865992       -0.5159822666
 C          2.3752358645        0.6539444969       -0.2319893656
 S          4.0538667861        1.2230435298       -0.3539012233
 O          4.2905114281        2.2843700789        0.5748993883
 O          4.4674625951        1.4245474815       -1.7096799871
 H          6.6203882873        1.4092631575        1.0705395401
 H          6.6315862141        1.4064570615       -0.6916956466
 H          7.9578973107        0.6484689584        0.1960696326
 H          6.0829629264       -2.2847072546        1.4377877350
 H          7.6441148290       -1.4551465574        1.4157046590
 H          6.2935594685       -0.7768453776        2.3336308436
 H          6.1215932552       -0.7013115145       -1.9544059886
 H          5.9273342598       -2.2360787729       -1.0898813083
 H          7.5172491791       -1.4679335245       -1.1790357936
 H          1.2388194953       -2.2972717122        0.9433931489
 H          0.1046565497       -3.3297824620       -0.8773319383
 H         -1.0794167086       -5.3920973767       -1.5064999005
 H         -3.4134312550       -5.7597397287       -0.8623963226
 H         -4.6482793607       -4.0511951221        0.4320324716
 H         -5.4189863050       -1.8169403626        1.8260156377
 H         -5.5140709873        0.3662663038        2.9827256170
 H         -3.5218411107        1.7853799635        3.1392667160
 H         -1.3964492100        1.1054267853        2.1051562826
 H         -1.3945405190       -1.1522322621       -2.0999841890
 H         -3.5234459073       -1.8735612664       -3.0976529484
 H         -5.5360983703       -0.4854399868       -2.9198056139
 H         -5.4556192607        1.7114135529       -1.7879548320
 H         -4.6905875561        3.9802215729       -0.4524734379
 H         -3.4608936312        5.7262179084        0.7968281551
 H         -1.1211787188        5.3874399226        1.4377734141
 H          0.0747863428        3.3231442276        0.8457201357
 H          1.2030969690        2.2907218014       -0.9470719283
