  53
  -85.5935539108000       0.272057949431002      !
 C         -7.4862840543       -2.5633621986       -0.1376682439
 O         -6.1611936008       -3.0264247997       -0.0389938832
 C         -5.1534854062       -2.1059266312       -0.0061098356
 C         -3.8599826616       -2.6476060417        0.0616521048
 C         -2.7373934090       -1.8501123369        0.0832630976
 C         -2.9136694917       -0.4741215659        0.0235057815
 C         -4.2080077983        0.0821265460       -0.0012006544
 C         -5.3351069599       -0.7323078674       -0.0225352592
 C         -4.0415468164        1.5089066355        0.0119344385
 C         -4.9343951751        2.5721454032       -0.0203031508
 C         -4.4329711942        3.8583372464       -0.0264336873
 C         -3.0594360340        4.0894523918       -0.0222915562
 C         -2.1511614033        3.0479963324        0.0089804861
 C         -2.6491667233        1.7533655886        0.0490613519
 N         -1.9750147506        0.5460903215        0.0556365335
 C         -0.5939954178        0.3746867661        0.0456110397
 C         -0.0079370382       -0.5348313462       -0.8351700586
 C          1.3569468206       -0.7197446969       -0.8382113201
 C          2.1736296822        0.0155705072        0.0198800083
 C          3.6246004924       -0.1812716373        0.0041571666
 C          4.5124540128        0.9025879061       -0.0588118109
 C          4.0410809449        2.2291045917       -0.1492062521
 N          3.7018078081        3.3213225958       -0.2446444800
 C          5.8985619784        0.6597135226       -0.0839134092
 C          6.8801210487        1.7779821655       -0.1708162870
 N          6.3868847327       -0.5672653905       -0.0459114345
 C          5.5829512875       -1.6139364316        0.0187839574
 C          6.2215772686       -2.9599505191        0.0735855973
 C          4.1837800376       -1.4670488096        0.0456799841
 C          3.3711817487       -2.6136823594        0.1675737470
 N          2.7513836141       -3.5719157751        0.2891217639
 C          1.5881112126        0.9348054580        0.8886904988
 C          0.2203467174        1.1045082445        0.9114679573
 H         -7.6380981586       -1.9714522341       -1.0466972796
 H         -8.1073120231       -3.4563184142       -0.1816894670
 H         -7.7711253048       -1.9678857495        0.7363397983
 H         -3.7698637488       -3.7212258355        0.1007584397
 H         -1.7562757505       -2.2920110609        0.1588915101
 H         -6.3142268311       -0.2828594899       -0.0473609754
 H         -5.9983746588        2.3916474618       -0.0445511018
 H         -5.1100770304        4.6990714321       -0.0467089404
 H         -2.6941230786        5.1052229093       -0.0490167092
 H         -1.0898599261        3.2427438466       -0.0139307375
 H         -0.6289378071       -1.0793287333       -1.5288361018
 H          1.7990622233       -1.4144447688       -1.5367523610
 H          7.8876642043        1.3826555757       -0.0803231722
 H          6.7795894458        2.2897429734       -1.1276810293
 H          6.6979867205        2.5113139166        0.6128328617
 H          6.0073238830       -3.4376902573        1.0297002076
 H          5.8283031090       -3.6046533809       -0.7103443693
 H          7.2960460397       -2.8550832042       -0.0412817617
 H          2.2059298550        1.4932609932        1.5761278356
 H         -0.2271289668        1.7878436974        1.6158557759
  53
  -85.5932321436000       0.193547449950830      !
 C         -7.5234809930       -2.5234590395        0.0004252604
 O         -6.2008083331       -3.0007329030        0.0398589924
 C         -5.1825747775       -2.0913302022        0.0341247515
 C         -3.8936091676       -2.6464838732        0.0739968152
 C         -2.7621879243       -1.8612335329        0.0633480275
 C         -2.9252009008       -0.4838715300        0.0001054207
 C         -4.2139565173        0.0860832804       -0.0059288061
 C         -5.3497777580       -0.7162240547        0.0053330243
 C         -4.0328538247        1.5110487499       -0.0082174704
 C         -4.9141691680        2.5839549050       -0.0363457110
 C         -4.3983882833        3.8641184864       -0.0618039237
 C         -3.0224687655        4.0803576406       -0.0795000991
 C         -2.1256087369        3.0292577001       -0.0520293142
 C         -2.6377354184        1.7407947023        0.0057683027
 N         -1.9761477334        0.5268062437        0.0102834278
 C         -0.5959994653        0.3474988308        0.0112363988
 C         -0.0023275246       -0.5615133922       -0.8645867244
 C          1.3635398388       -0.7427187005       -0.8587549633
 C          2.1727030063       -0.0078523378        0.0068934550
 C          3.6253645502       -0.1902979632        0.0015287035
 C          4.4988965674        0.9072153212       -0.0206136868
 C          4.0138729663        2.2296821854       -0.0949195949
 N          3.6715993422        3.3220404569       -0.1792973028
 C          5.8887346113        0.6855386928       -0.0248125552
 C          6.8545107513        1.8208397114       -0.0476029765
 N          6.3946094241       -0.5349095607       -0.0115724279
 C          5.6050493989       -1.5940409626        0.0082870279
 C          6.2632263409       -2.9314521817        0.0267379527
 C          4.2032327433       -1.4684276899        0.0170567296
 C          3.4095905308       -2.6318819233        0.0954432440
 N          2.8082696392       -3.6055958265        0.1807446660
 C          1.5777330588        0.9052472392        0.8765595259
 C          0.2103067147        1.0745407155        0.8870318790
 H         -7.7145000703       -1.9436990237       -0.9086773418
 H         -8.1561148134       -3.4094497449        0.0018181723
 H         -7.7566412697       -1.9114435303        0.8779887387
 H         -3.8142944734       -3.7208087681        0.1186711787
 H         -1.7840529755       -2.3131606488        0.1179888472
 H         -6.3244643655       -0.2562118194       -0.0012326424
 H         -5.9803748181        2.4154323536       -0.0441250438
 H         -5.0662776658        4.7121381914       -0.0805797253
 H         -2.6465268993        5.0917501599       -0.1203482460
 H         -1.0623772276        3.2110856660       -0.0906294438
 H         -0.6171524897       -1.1070380171       -1.5630883373
 H          1.8117860294       -1.4335251878       -1.5571339079
 H          6.6728881762        2.4578119480       -0.9126435401
 H          6.7351064884        2.4371790795        0.8431804096
 H          7.8678683076        1.4320726120       -0.0852867274
 H          5.9440509734       -3.5249488909       -0.8298409106
 H          7.3417340998       -2.8033343436        0.0006472393
 H          5.9826484531       -3.4787233260        0.9268120525
 H          2.1879414795        1.4593469273        1.5741109178
 H         -0.2443555244        1.7559329503        1.5888838005
  53
  -85.5931337987000       0.174417985829817      !
 C         -7.4973346593       -2.1598559559        1.4066912648
 O         -6.1708285489       -2.5628856680        1.6441508510
 C         -5.1595932695       -1.7736330462        1.1751024107
 C         -3.8660917694       -2.2543393984        1.4341069945
 C         -2.7415642773       -1.5719546066        1.0260296522
 C         -2.9167447439       -0.3730898114        0.3487496556
 C         -4.2100948947        0.1093562863        0.0640229215
 C         -5.3388109902       -0.5881997022        0.4808649276
 C         -4.0393211430        1.3230772538       -0.6844640169
 C         -4.9253407321        2.2528282362       -1.2132530711
 C         -4.4154255054        3.3542857853       -1.8705208526
 C         -3.0403568947        3.5431116418       -1.9915575865
 C         -2.1389239901        2.6323503335       -1.4749359173
 C         -2.6457422877        1.5108130755       -0.8341005420
 N         -1.9765340961        0.4809204057       -0.2033349367
 C         -0.5926271254        0.3174009176       -0.1471361195
 C          0.1707423324        0.3924318616       -1.3109546558
 C          1.5374505621        0.2192991742       -1.2569194728
 C          2.1719591358       -0.0124633273       -0.0385503344
 C          3.6275595905       -0.1870717032        0.0164911083
 C          4.4201637612        0.5673253092        0.8918079366
 C          3.8477776635        1.5491709163        1.7274459635
 N          3.4193146253        2.3806216429        2.3921996961
 C          5.8141666322        0.3710323068        0.9036058658
 C          6.7021433944        1.1715205237        1.7936623878
 N          6.3922818015       -0.5218360855        0.1207946206
 C          5.6778132711       -1.2570878487       -0.7134408634
 C          6.4202346878       -2.2352533012       -1.5580268026
 C          4.2807309064       -1.1159843116       -0.8059486605
 C          3.5487985178       -1.9458768689       -1.6811080642
 N          2.9916162946       -2.6445324967       -2.4009772313
 C          1.4086012473       -0.0768137920        1.1249882469
 C          0.0392160623        0.0761385257        1.0715390790
 H         -7.7140262677       -2.1020379557        0.3348148177
 H         -8.1235746589       -2.9269500938        1.8590914738
 H         -7.7140580840       -1.1936628188        1.8742550922
 H         -3.7783910796       -3.1896850693        1.9632813572
 H         -1.7578795924       -1.9720710875        1.2176789512
 H         -6.3174687246       -0.2003959972        0.2497278390
 H         -5.9905982965        2.1166020200       -1.1039700273
 H         -5.0871867510        4.0884564953       -2.2892478533
 H         -2.6704053951        4.4233555477       -2.4959523291
 H         -1.0751509296        2.7981570498       -1.5558451689
 H         -0.3167677961        0.5653764044       -2.2578669440
 H          2.1204554077        0.2784999626       -2.1642111929
 H          7.7137172780        0.7794769549        1.7426406937
 H          6.7064651684        2.2138630751        1.4740549900
 H          6.3441333870        1.1457197244        2.8217457456
 H          5.8793395481       -3.1766700273       -1.6324883337
 H          6.5350985817       -1.8371424914       -2.5668460644
 H          7.4082112299       -2.4002137112       -1.1376731361
 H          1.8894776021       -0.2631452200        2.0739585826
 H         -0.5474750650        0.0298283249        1.9758546457
  53
  -85.5929791085000       0.148081420981169      !
 C         -6.3675198208       -4.0529223151        0.0362928728
 O         -6.4240856458       -2.6474653591        0.0132794795
 C         -5.2553840778       -1.9407349632        0.0163749176
 C         -3.9834589307       -2.5192596217        0.0483354326
 C         -2.8382154284       -1.7414050590        0.0411706199
 C         -2.9734932894       -0.3653291285       -0.0108565103
 C         -4.2548101695        0.2305262307       -0.0097539407
 C         -5.3930077329       -0.5559504777       -0.0012562090
 C         -4.0448388294        1.6525938557       -0.0005132025
 C         -4.9066688405        2.7405066120       -0.0186772721
 C         -4.3672124140        4.0115460435       -0.0342050614
 C         -2.9878427099        4.2019843239       -0.0524065336
 C         -2.1102319189        3.1340834186       -0.0352051497
 C         -2.6461150286        1.8550503814        0.0130347136
 N         -2.0058764423        0.6285083694        0.0060137864
 C         -0.6298065530        0.4240848782        0.0060522153
 C         -0.0531289805       -0.4945393286       -0.8714884547
 C          1.3085044847       -0.7041322002       -0.8641932622
 C          2.1317355129        0.0125069030        0.0035449151
 C          3.5797122876       -0.2030976875        0.0003977325
 C          4.4795411421        0.8727871208       -0.0262559217
 C          4.0257768284        2.2060776222       -0.1037988095
 N          3.7036113680        3.3038325341       -0.1926252108
 C          5.8635077398        0.6172199505       -0.0308401338
 C          6.8564773635        1.7286099496       -0.0620271691
 N          6.3396514879       -0.6150857557       -0.0122736690
 C          5.5246493512       -1.6546701495        0.0136418378
 C          6.1504959316       -3.0073460684        0.0425632282
 C          4.1263923910       -1.4949136745        0.0221003521
 C          3.3036489473       -2.6373938927        0.1073211176
 N          2.6798936406       -3.5969896467        0.1929788912
 C          1.5547631189        0.9372745691        0.8729594926
 C          0.1910008484        1.1336527821        0.8831104395
 H         -5.8459436066       -4.4503028043       -0.8406276576
 H         -5.8839834208       -4.4226085109        0.9465189280
 H         -7.4035521721       -4.3873162765        0.0194874467
 H         -3.8718249067       -3.5909170313        0.0858670803
 H         -1.8687209570       -2.2128735850        0.0908510929
 H         -6.3802325892       -0.1239298249       -0.0018354555
 H         -5.9751175298        2.5888948693       -0.0264421811
 H         -5.0192403142        4.8718966927       -0.0449306172
 H         -2.5927254158        5.2063571751       -0.0855188087
 H         -1.0440180124        3.2971955296       -0.0748128160
 H         -0.6777769276       -1.0245815197       -1.5731668857
 H          1.7435291091       -1.4025840134       -1.5634526531
 H          6.6975493756        2.3556429027       -0.9387740613
 H          6.7444020941        2.3618983751        0.8176250825
 H          7.8604432762        1.3151588916       -0.0854966353
 H          5.9068871273       -3.5139999981        0.9763909973
 H          5.7714807430       -3.6228887633       -0.7722917667
 H          7.2286701744       -2.9079959881       -0.0420616180
 H          2.1757426789        1.4785390625        1.5711179419
 H         -0.2502290908        1.8221471383        1.5865473654
  53
  -85.5925198425000       9.108283363252039E-002 !
 C         -7.5201111771       -2.1800067338       -1.3248839557
 O         -6.1975845624       -2.6296134396       -1.4916711433
 C         -5.1809027252       -1.8302038054       -1.0540931992
 C         -3.8919557720       -2.3487768497       -1.2561788021
 C         -2.7621441583       -1.6575424279       -0.8787319412
 C         -2.9255368223       -0.4097584773       -0.2923452865
 C         -4.2153081437        0.1056824080       -0.0536830324
 C         -5.3497351951       -0.6001405140       -0.4394474635
 C         -4.0371129880        1.3636325787        0.6157973187
 C         -4.9201063028        2.3295243241        1.0806933310
 C         -4.4069815691        3.4674625650        1.6697112428
 C         -3.0313725371        3.6573316612        1.7791243341
 C         -2.1332978071        2.7108805418        1.3239019452
 C         -2.6428030027        1.5498136382        0.7599567857
 N         -1.9788599537        0.4714003752        0.2063040586
 C         -0.5971534798        0.3019396897        0.1520852203
 C          0.0206331894       -0.0835145910       -1.0372174145
 C          1.3889389529       -0.2417841291       -1.0906974545
 C          2.1722552542       -0.0258841690        0.0418706275
 C          3.6272065683       -0.1921455328       -0.0153279708
 C          4.3895951288        0.3830959976       -1.0427143173
 C          3.7940803264        1.1856742685       -2.0383177605
 N          3.3596253379        1.8624804785       -2.8568881186
 C          5.7853010724        0.2017266970       -1.0537190930
 C          6.6358986393        0.7971966386       -2.1232529310
 N          6.3994671848       -0.4985157387       -0.1166289263
 C          5.7165499442       -1.0568587269        0.8667043712
 C          6.4910423389       -1.8325543259        1.8768999054
 C          4.3175847686       -0.9298929151        0.9574289495
 C          3.6347049890       -1.5921703100        1.9990542499
 N          3.1235086841       -2.1649485988        2.8519243107
 C          1.5517931198        0.3529794170        1.2311705613
 C          0.1844473614        0.5177212923        1.2866509047
 H         -7.6965200009       -1.2423207195       -1.8624280275
 H         -8.1514718474       -2.9605452584       -1.7459833103
 H         -7.7690102995       -2.0452962812       -0.2669951136
 H         -3.8121075645       -3.3198804574       -1.7179330933
 H         -1.7840577592       -2.0888234406       -1.0252846312
 H         -6.3249598438       -0.1834391158       -0.2468809620
 H         -5.9855765864        2.1916760406        0.9760628138
 H         -5.0761130855        4.2289922391        2.0408798698
 H         -2.6571748325        4.5665295329        2.2256646444
 H         -1.0697603615        2.8818354643        1.3935256918
 H         -0.5757473518       -0.2361818320       -1.9230081089
 H          1.8535634658       -0.5490319517       -2.0157744337
 H          6.3409588110        0.4139746811       -3.1003591876
 H          6.5143089142        1.8802289726       -2.1460112235
 H          7.6771573041        0.5502764038       -1.9350083147
 H          7.5473232367       -1.7977074605        1.6265035238
 H          6.3376780817       -1.4191812015        2.8733438925
 H          6.1547501152       -2.8688608553        1.8975471823
 H          2.1460323613        0.5343383241        2.1143861105
 H         -0.2887135666        0.7938869596        2.2159129391
  53
  -85.5923276909000       7.432411935829396E-002 !
 C         -7.5492277721       -1.8565825108        1.7181210942
 O         -6.2392083068       -2.3438078309        1.8789716626
 C         -5.2133240182       -1.6438559193        1.3123383748
 C         -3.9356640238       -2.1822447840        1.5333449482
 C         -2.7976268503       -1.5815705713        1.0422066138
 C         -2.9396845592       -0.4040478399        0.3204136456
 C         -4.2201562576        0.1227939919        0.0581789703
 C         -5.3631268534       -0.4915571479        0.5580202262
 C         -4.0251051960        1.2895697382       -0.7559347902
 C         -4.8941583855        2.2238007204       -1.3040986853
 C         -4.3669918547        3.2738068892       -2.0284866340
 C         -2.9902304326        3.4094968599       -2.1899864271
 C         -2.1061450791        2.4924643240       -1.6542551998
 C         -2.6307342916        1.4153382483       -0.9539509997
 N         -1.9821443997        0.3834590586       -0.3002541368
 C         -0.6029756476        0.2041754962       -0.2290638168
 C          0.1835263932        0.3066948516       -1.3763315930
 C          1.5520031475        0.1609268780       -1.2982409128
 C          2.1699012527       -0.0936851508       -0.0746794657
 C          3.6271209032       -0.2144756114        0.0136862370
 C          4.3515389568        0.4481599006        1.0163157123
 C          3.7178189002        1.2943580118        1.9502662024
 N          3.2570278454        2.0189917727        2.7117951389
 C          5.7514455552        0.3117753144        1.0658714330
 C          6.5591035790        0.9909144059        2.1188603881
 N          6.4071805761       -0.4182892851        0.1814839439
 C          5.7624569389       -1.0528641739       -0.7811592703
 C          6.5843243577       -1.8496187128       -1.7361695290
 C          4.3614507028       -0.9843003220       -0.9007952624
 C          3.7265834882       -1.7348046386       -1.9124284476
 N          3.2629280562       -2.3759786674       -2.7438873000
 C          1.3792893190       -0.2150503356        1.0673517082
 C          0.0111361824       -0.0684747446        0.9932456349
 H         -7.8467013944       -1.8423502853        0.6644029859
 H         -8.1895178251       -2.5481350044        2.2630752944
 H         -7.6588018491       -0.8523546230        2.1407423858
 H         -3.8712211476       -3.0954263998        2.1032297313
 H         -1.8303574176       -2.0298207594        1.2074159423
 H         -6.3301121461       -0.0653543467        0.3463663398
 H         -5.9596229776        2.1301097550       -1.1586979427
 H         -5.0251063661        4.0090582784       -2.4663848413
 H         -2.6033848239        4.2522776659       -2.7431257656
 H         -1.0410780456        2.6255751357       -1.7666732069
 H         -0.2856477791        0.4845571537       -2.3311959030
 H          2.1489472250        0.2641323366       -2.1920324039
 H          7.6127047760        0.7848584928        1.9547568265
 H          6.3872359881        2.0664547159        2.0960680789
 H          6.2689477852        0.6346516723        3.1070748080
 H          6.4511049128       -1.4784931804       -2.7519641653
 H          7.6316657516       -1.7769983178       -1.4580144723
 H          6.2741925779       -2.8941047031       -1.7262091064
 H          1.8384287204       -0.4368695497        2.0189563556
 H         -0.5875156408       -0.1369814850        1.8877493555
  53
  -85.5913114971000       2.535825918698814E-002 !
 C         -7.4941819912       -2.2113016844       -1.3306892749
 O         -6.1674442020       -2.6469525655       -1.5000405916
 C         -5.1584675399       -1.8396832039       -1.0592899660
 C         -3.8647801534       -2.3455572345       -1.2625629512
 C         -2.7414699214       -1.6452848568       -0.8824626185
 C         -2.9161659213       -0.4006584792       -0.2928949086
 C         -4.2107053763        0.1019124247       -0.0528937515
 C         -5.3385961335       -0.6135332788       -0.4402478049
 C         -4.0441269032        1.3600908500        0.6191375709
 C         -4.9362312072        2.3165725981        1.0857702044
 C         -4.4340434174        3.4592418487        1.6749375488
 C         -3.0604147625        3.6628010554        1.7831687429
 C         -2.1533565360        2.7257034156        1.3265835229
 C         -2.6515929752        1.5599630911        0.7621920612
 N         -1.9775991278        0.4889267717        0.2065207720
 C         -0.5949469054        0.3288006371        0.1516006633
 C          0.0225580442       -0.0601632368       -1.0367923521
 C          1.3904761414       -0.2208412610       -1.0902153068
 C          2.1748278212       -0.0005094866        0.0408876276
 C          3.6280848985       -0.1816994867       -0.0151026107
 C          4.3972673026        0.3767273370       -1.0498614921
 C          3.7952276222        1.1882054440       -2.0350027465
 N          3.3413112176        1.8712302150       -2.8377314755
 C          5.7869523741        0.1646134916       -1.0684258907
 C          6.6634066159        0.7245496419       -2.1364256496
 N          6.3901984804       -0.5432776162       -0.1266493473
 C          5.7040866162       -1.0764599556        0.8651142384
 C          6.4679222884       -1.8558449817        1.8805107864
 C          4.3067989967       -0.9235704315        0.9605887903
 C          3.6169148369       -1.5663004584        2.0097040297
 N          3.1026818881       -2.1243566493        2.8705682123
 C          1.5553933560        0.3877034729        1.2277132199
 C          0.1879415192        0.5525000658        1.2837464292
 H         -7.6785621343       -1.2705996591       -1.8598262397
 H         -8.1176472056       -2.9938651186       -1.7600550037
 H         -7.7446406579       -2.0887861632       -0.2716619859
 H         -3.7756867371       -3.3140247703       -1.7278809085
 H         -1.7597304262       -2.0674862977       -1.0304917503
 H         -6.3176628759       -0.2081482179       -0.2433760540
 H         -6.0003146802        2.1683626138        0.9816642689
 H         -5.1104689187        4.2139035045        2.0469262469
 H         -2.6950486079        4.5756558678        2.2294995999
 H         -1.0916070982        2.9073694429        1.3953821270
 H         -0.5740656592       -0.2155977559       -1.9218218181
 H          1.8534965969       -0.5350763867       -2.0137222358
 H          7.3502322200        1.4474057509       -1.6973288976
 H          7.2672221625       -0.0741462217       -2.5636679845
 H          6.0839740038        1.2084230701       -2.9181016103
 H          7.5225758658       -1.8485535470        1.6223763093
 H          6.3316962365       -1.4244985690        2.8715164095
 H          6.1081528678       -2.8835192946        1.9191720654
 H          2.1502454873        0.5749910569        2.1092680870
 H         -0.2837839626        0.8341650298        2.2120828060
  53
  -85.5911391172000       2.112998162938109E-002 !
 C         -6.3576739152       -4.0577636664        0.0086548060
 O         -6.4169153592       -2.6523559236        0.0019376619
 C         -5.2495492008       -1.9432828463        0.0139858592
 C         -3.9768445192       -2.5196459413        0.0562755755
 C         -2.8328882897       -1.7399146533        0.0559880141
 C         -2.9704017302       -0.3641159071        0.0009132733
 C         -4.2526304416        0.2296758611       -0.0067623796
 C         -5.3895476208       -0.5587910133       -0.0052192349
 C         -4.0448388830        1.6520035494        0.0000332879
 C         -4.9079204460        2.7387248678       -0.0273599592
 C         -4.3700197132        4.0104216391       -0.0461412145
 C         -2.9908237120        4.2027145308       -0.0574352770
 C         -2.1119357924        3.1361046048       -0.0303742261
 C         -2.6464803126        1.8566053558        0.0199487158
 N         -2.0045844772        0.6311158375        0.0201444847
 C         -0.6280624372        0.4284539161        0.0189819175
 C         -0.0518419455       -0.4867769439       -0.8622506341
 C          1.3100991825       -0.6935579669       -0.8583895378
 C          2.1338993496        0.0210886478        0.0106354759
 C          3.5816405311       -0.1973319981        0.0032787456
 C          4.4864380823        0.8772855450       -0.0285552503
 C          4.0182719628        2.2062952471       -0.1077401723
 N          3.6703018722        3.2971154526       -0.1931360410
 C          5.8678226301        0.6154953813       -0.0369202697
 C          6.8842436432        1.7057042892       -0.0733840533
 N          6.3363104072       -0.6224400350       -0.0202712304
 C          5.5190612213       -1.6571600896        0.0069085665
 C          6.1376690438       -3.0134431480        0.0235705911
 C          4.1203944481       -1.4909133887        0.0231456096
 C          3.2932933253       -2.6298774372        0.1117556387
 N          2.6637843182       -3.5851901840        0.2057838368
 C          1.5571008555        0.9413738917        0.8846763064
 C          0.1929914186        1.1364039434        0.8968428876
 H         -5.8265181780       -4.4436810836       -0.8678924433
 H         -5.8826549579       -4.4384285992        0.9192694489
 H         -7.3927973479       -4.3941645312       -0.0226856183
 H         -3.8637816817       -3.5910896969        0.0958724940
 H         -1.8626955044       -2.2093878112        0.1116231027
 H         -6.3774540480       -0.1283237164       -0.0105223679
 H         -5.9760936089        2.5857492699       -0.0406228390
 H         -5.0231624968        4.8698181992       -0.0649606791
 H         -2.5970092375        5.2075205810       -0.0929316146
 H         -1.0456874519        3.3000598614       -0.0640677896
 H         -0.6770508048       -1.0161400945       -1.5639145441
 H          1.7450678945       -1.3882575029       -1.5613869197
 H          7.4708867826        1.6208027479       -0.9874980304
 H          6.4210160036        2.6881115612       -0.0314164073
 H          7.5722709361        1.5865974435        0.7623226202
 H          5.8439411082       -3.5530606040        0.9239641793
 H          5.7988268471       -3.5964631623       -0.8328653706
 H          7.2190889629       -2.9167449317       -0.0062091974
 H          2.1781369216        1.4799012156        1.5848575701
 H         -0.2484330139        1.8218763324        1.6031393531
