  110
       -148.35503702
 C          3.6002965839        5.4371455104        0.9563653873
 C          4.8194470815        4.8692385303        0.2158640447
 C          6.0618172648        5.1460666454        1.0672071174
 C          4.9936681295        5.5905503888       -1.1282145519
 C          4.6025340792        3.3840701142       -0.0361816352
 C          3.4972623662        2.9817819692       -0.7987632919
 C          3.2137068738        1.6588742724       -1.0690903813
 C          4.0619068159        0.6914855349       -0.5515508104
 C          5.1959283165        1.0713558083        0.1977175125
 C          5.4575557287        2.4112694468        0.4532205145
 C          5.8784697612       -0.1431707542        0.5459890309
 C          7.0291476906       -0.4070240484        1.2779506534
 C          7.4371990074       -1.7162238345        1.4690839900
 C          8.6924581589       -2.0798456358        2.2489017789
 C          9.6532281136       -2.8417351192        1.3250657897
 C          8.3097346816       -2.9642984205        3.4439202957
 C          9.4274832232       -0.8491440049        2.7869716474
 C          6.6565498060       -2.7465595865        0.9269857467
 C          5.5092063542       -2.5139095333        0.1971992678
 C          5.1251693005       -1.1979443502       -0.0120346804
 N          4.0310344537       -0.6822740258       -0.6761684590
 C          3.0480036267       -1.4290628778       -1.3422672076
 C          3.4392004512       -2.4134617652       -2.2598915077
 C          2.5105359020       -3.1900636209       -2.9211518851
 C          1.1671674964       -2.9555641701       -2.6675725705
 N          0.0544185061       -3.5746003108       -3.1777011511
 C         -1.0685162419       -3.0008818919       -2.6382676369
 C         -2.4071669586       -3.2949941008       -2.8521533079
 C         -3.3495524647       -2.5457025184       -2.1790053525
 C         -2.9748464121       -1.5245103617       -1.2958757541
 N         -3.9718356328       -0.7839693049       -0.6415962846
 C         -4.0825457174        0.5909098559       -0.6348303011
 C         -3.3008555804        1.5550152845       -1.2487974867
 C         -3.6611755573        2.8818574696       -1.1014542689
 C         -4.7802557779        3.2817642109       -0.3652238286
 C         -5.1748058005        4.7437480532       -0.2060677123
 C         -6.5739825578        4.9518052554       -0.8030825548
 C         -4.2117141743        5.7025022365       -0.9113462192
 C         -5.1903020349        5.1005626419        1.2871586722
 C         -5.5644099867        2.3047880250        0.2331573066
 C         -5.2276829870        0.9670187598        0.1020350549
 C         -5.8283804427       -0.2515146248        0.5688007016
 C         -6.9450402423       -0.5205348840        1.3492040360
 C         -7.2672369684       -1.8310515732        1.6602649319
 C         -8.4727255960       -2.1997922289        2.5130670415
 C         -7.9917973115       -2.9298761970        3.7752900841
 C         -9.4030658142       -3.1158209666        1.7055162110
 C         -9.2792913842       -0.9746388072        2.9523991710
 C         -6.4402319232       -2.8562465307        1.1807306801
 C         -5.3255841348       -2.6186594863        0.4031198290
 C         -5.0234047745       -1.3037760817        0.0831118390
 C         -1.6373242227       -1.2348441258       -1.0702044321
 C         -0.6773638284       -1.9729435423       -1.7471733609
 C          0.7584714411       -1.9482761583       -1.7612029036
 C          1.7051447365       -1.1907197419       -1.0873911037
 H          3.4582949689        4.9155039446        1.9007685109
 H          2.6933148195        5.3285311416        0.3685484234
 H          3.7464462269        6.4951227279        1.1642327752
 H          5.9792989997        4.6727660394        2.0429027366
 H          6.1649052202        6.2184718897        1.2211330992
 H          6.9623107606        4.7901412129        0.5721505807
 H          5.8448602411        5.1788483507       -1.6666032230
 H          4.1119770602        5.4830077433       -1.7535868680
 H          5.1677852484        6.6522521145       -0.9650408390
 H          2.8312924930        3.7305551333       -1.1999848792
 H          2.3607618803        1.3924073222       -1.6753625011
 H          6.3312265767        2.6643216388        1.0299857690
 H          7.5812367960        0.4227637497        1.6864269969
 H          9.2040660544       -3.7602797194        0.9580233570
 H         10.5653501974       -3.0977228072        1.8604207671
 H          9.9165002220       -2.2251507674        0.4680642212
 H          7.8476371653       -3.8922206991        3.1195315691
 H          7.6060566139       -2.4407493440        4.0876298425
 H          9.1948138346       -3.2105620927        4.0269821680
 H          9.7449116647       -0.1981098253        1.9758194828
 H         10.3151466166       -1.1658417648        3.3309550436
 H          8.7970312314       -0.2865342351        3.4714993535
 H          6.9531010713       -3.7725460563        1.0833599204
 H          4.9262867056       -3.3373592258       -0.1875478288
 H          4.4921162643       -2.5528531969       -2.4527700779
 H          2.8230874807       -3.9512069806       -3.6200045299
 H          0.0608349316       -4.3231619805       -3.8497807501
 H         -2.7056721236       -4.0779150336       -3.5327682449
 H         -4.4010250971       -2.7322567789       -2.3379633874
 H         -2.4378644110        1.2840421217       -1.8389158080
 H         -3.0438249608        3.6208027109       -1.5847820847
 H         -6.5751575286        4.6844066506       -1.8577545281
 H         -6.8713900527        5.9944339279       -0.7101817129
 H         -7.3147250016        4.3393977499       -0.2968010516
 H         -4.1897023878        5.5179635017       -1.9828392722
 H         -4.5426248254        6.7273231769       -0.7543344049
 H         -3.2046264568        5.6099691487       -0.5114497220
 H         -4.2055149108        4.9412224116        1.7211341676
 H         -5.4623478249        6.1453731443        1.4218738801
 H         -5.9041939622        4.4903352072        1.8326248139
 H         -6.4449487339        2.5676257156        0.7985643945
 H         -7.5378298768        0.3063921896        1.7023355031
 H         -7.4657620837       -3.8471115291        3.5266831502
 H         -8.8394671325       -3.1838776577        4.4085545699
 H         -7.3151707598       -2.2933371101        4.3416699379
 H         -8.9018899726       -4.0351627815        1.4167184101
 H        -10.2787055857       -3.3766204975        2.2964534098
 H         -9.7343678262       -2.6100051350        0.8010097929
 H        -10.1288622262       -1.2955635691        3.5517838802
 H         -9.6611823903       -0.4296998341        2.0924756160
 H         -8.6742889734       -0.3055425987        3.5593886508
 H         -6.6721228742       -3.8813496353        1.4271387568
 H         -4.7044397985       -3.4349585736        0.0650167029
 H         -1.3558054230       -0.4575808662       -0.3766696578
 H          1.4089176639       -0.4428973084       -0.3684713479
