81
 energy: -125.606612292017 gnorm: 0.000052769195 xtb: 6.7.1 (edcfbbe)
Br          -4.74606416467808        4.53160832978274       -0.61622513333450
C           -3.77695646764807        3.18339252068077        0.33363927790693
C           -2.97240237221089        3.54364899938891        1.40089916133274
C           -2.28800196807327        2.55213066777579        2.08498505973442
C           -2.41566685677733        1.22472484427949        1.71874305270416
C           -3.22556193550392        0.87991441676721        0.63993107263432
N           -3.38507141229487       -0.46603520547017        0.27503141737085
C           -2.40648816543546       -1.40402464859703        0.04807336539943
C           -0.97627802076881       -1.15156820193168        0.03781096788731
C           -0.11638420603181       -2.18430337294825        0.41590406637713
C            1.24961817621537       -2.00260287038796        0.39942910733547
C            1.80525460269742       -0.78435394108457        0.00550522497776
C            3.25948310925155       -0.58964915345646       -0.00805060093888
C            4.11310625398497       -1.60496916572119       -0.43972665272947
C            5.47928405189801       -1.42445572100060       -0.46517156897889
C            6.04460095864712       -0.22121209249240       -0.03786613494884
N            7.42875084721864       -0.04034735576957       -0.05149895023593
C            7.97490709864223        1.21560207090604       -0.34773365777170
C            7.39490851680558        2.03070306991283       -1.31987995575257
C            7.93731994301139        3.26930123146889       -1.60422834974042
C            9.06754547756605        3.71154055119808       -0.93553631633950
C            9.65151006222595        2.90304383614906        0.02646837357024
C            9.11106705876348        1.66673820993588        0.32418659424044
C            8.28082978716144       -1.11951726025471        0.22187640107924
C            9.46865698796014       -1.27994647320315       -0.49125747425618
C           10.30720879171854       -2.34340675681470       -0.21699976919517
C            9.97439895584444       -3.26565785365981        0.76214021673635
C            8.79467535647473       -3.11168383225127        1.47255445365043
C            7.95411436680425       -2.04661546478624        1.21151388836031
C            5.19515853354663        0.79528565233987        0.40362106428530
C            3.82847982026739        0.61414412391364        0.40744006563961
C            0.94276073937437        0.23827099160239       -0.38885706935646
C           -0.42542061576847        0.05864722911858       -0.38261609514559
N           -2.93262038822478       -2.57388118376604       -0.21320253570467
C           -4.28759772385702       -2.42826329735782       -0.16606594733724
C           -5.16419220400358       -3.57102612200518       -0.37830336384162
C           -6.44188991456609       -3.63430321837491        0.17512362237774
C           -7.24295847431419       -4.73925015324734       -0.04583729467450
C           -6.78142486538763       -5.79750383664895       -0.81198020407389
C           -5.50530860930945       -5.75023603502785       -1.35053470493920
C           -4.70132919460301       -4.64771165866636       -1.13452389253664
C           -4.59737604836790       -1.11238664822217        0.12774686116449
C           -5.87843699003957       -0.42809571141546        0.26468605419917
C           -6.83136506125189       -0.53170616327960       -0.74831944188047
C           -8.03974366309207        0.13003779857109       -0.63964895928938
C           -8.31326144553742        0.90434665276638        0.47703320463381
C           -7.37567734190901        1.00506773709841        1.49151659098660
C           -6.16485321792506        0.34474205489342        1.38881264443516
C           -3.90758938415210        1.86655875240204       -0.06544338447579
H           -2.88444823899911        4.57827564124277        1.69222650568119
H           -1.65849350136819        2.81901103325292        2.91936517930758
H           -1.89356155175871        0.45123239078970        2.26089880778986
H           -0.54607929056119       -3.12543601389204        0.72344192273526
H            1.89777257478466       -2.80674295197085        0.71491584856897
H            3.69653043620760       -2.53659964437587       -0.79352449962348
H            6.12192169840336       -2.21550654402868       -0.82327483141336
H            6.52037633149070        1.68402269046987       -1.85114762589487
H            7.47875094051422        3.88967498666191       -2.36070266419025
H            9.49024025438297        4.67874333440141       -1.16273336731108
H           10.53076331917996        3.24061015213210        0.55586362709245
H            9.56396708270879        1.04194662577080        1.08038928465300
H            9.72612855402890       -0.56758475718364       -1.26167497867990
H           11.22288364171671       -2.45744173169454       -0.77894817430215
H           10.63016998945385       -4.09760052335859        0.97085428976264
H            8.53003685630807       -3.82179595538189        2.24262146614670
H            7.03935144090529       -1.92378628506832        1.77309957630473
H            5.61786107393621        1.72741136304825        0.74937717993092
H            3.19163573760193        1.40779182232675        0.77002001144224
H            1.35177041649536        1.17668257252947       -0.73357021714354
H           -1.06553492167802        0.85627897594781       -0.73048661781351
H           -6.80337653799631       -2.82196244234570        0.78819557908242
H           -8.23237114650103       -4.77656547808536        0.38745166879825
H           -7.41153926360007       -6.65832327902992       -0.98268397758147
H           -5.13687196322822       -6.57641709794985       -1.94176271155713
H           -3.70398966076308       -4.59836628117964       -1.54482806382956
H           -6.61202342351265       -1.13294680378375       -1.61904800735176
H           -8.76863032658741        0.04615223304469       -1.43234654411091
H           -9.25560015725135        1.42542629719229        0.55721494464619
H           -7.58683063419903        1.60086137787248        2.36763205569728
H           -5.44155700304627        0.41632013202378        2.18915642731924
H           -4.52967209676087        1.60349779525991       -0.90686456970308
