81
 energy: -125.524242636096 gnorm: 0.000066429219 xtb: 6.7.1 (edcfbbe)
Br          -4.94937041807667        4.61447736710218       -0.48612992199386
C           -3.92929317233503        3.27786295489734        0.43330938442168
C           -3.12380266565373        3.65354014907793        1.49756943957182
C           -2.38943786299288        2.67051490207103        2.14917878535590
C           -2.46903306547702        1.35091706159995        1.75765616164763
C           -3.28757339865069        0.98584309747413        0.68096318849393
N           -3.40668886421155       -0.34823331280132        0.30183072725995
C           -2.37922246870827       -1.28245485946073        0.09166747690637
C           -0.99746789161304       -1.04589532481084        0.02657633340025
C           -0.12168751953261       -2.17392904724523        0.03437145129943
C            1.22741733605477       -2.03119736764809       -0.00791768083995
C            1.84849442138888       -0.74934002845113       -0.06855607534128
C            3.26544607007962       -0.58867907523106       -0.06682200984506
C            4.14538998128361       -1.64380762005270       -0.42056387439990
C            5.50328725748204       -1.48505302592614       -0.42088779050914
C            6.08840141933107       -0.25688077642618       -0.06198291851726
N            7.46481864012143       -0.09356842820736       -0.06226013076274
C            8.02792621633844        1.14771559576826       -0.38180622557318
C            7.47077601004434        1.93868071836784       -1.38890516215284
C            8.02774110858335        3.16489050596405       -1.69488759868990
C            9.14512962470691        3.61895012074668       -1.01073311394559
C            9.70484480521205        2.83463133381605       -0.01348421750402
C            9.15410724278120        1.60838784827158        0.30348524190975
C            8.30386699732239       -1.16796199105553        0.25646911370180
C            9.50609875842930       -1.35105728718324       -0.42991383810197
C           10.33008479660602       -2.41320777746780       -0.11328672538389
C            9.97118541086487       -3.30698195671936        0.88430878215183
C            8.77924677919879       -3.12796034565497        1.56982729640555
C            7.94914548269449       -2.06734682163147        1.26416395035401
C            5.23382450126686        0.80124389389168        0.29776007465555
C            3.87642702978533        0.64012850232777        0.29431052590914
C            0.96852439281635        0.36582127344971       -0.15187913028080
C           -0.38437106443861        0.23246855195076       -0.11497449274241
N           -2.91005502791337       -2.49222796854231       -0.14722514845241
C           -4.23776253677940       -2.36060687064306       -0.15024705117221
C           -5.10036062089261       -3.51460036698827       -0.35673690454523
C           -6.33514157907583       -3.63934100944452        0.28024899580858
C           -7.11856339313560       -4.75792472221703        0.06661861314411
C           -6.68353742451125       -5.76759253022531       -0.77722091967200
C           -5.44819864869149       -5.66150697294886       -1.39733584032210
C           -4.65999443141373       -4.54709462539665       -1.18610755144093
C           -4.59905601483811       -1.02357937656797        0.12059388026583
C           -5.90818387765499       -0.42728152242122        0.23859460195606
C           -6.89739318556825       -0.72694320242629       -0.70826570723503
C           -8.15120957205550       -0.15967078386186       -0.61650517784130
C           -8.45239390259879        0.71384269554529        0.41928681391693
C           -7.48770146585419        1.00533184027824        1.37214738079530
C           -6.22885066697279        0.44604382941249        1.28653767532265
C           -4.02150448106352        1.97007045839913        0.00965520131192
H           -3.07231731320271        4.68419990957339        1.80922429640880
H           -1.75967589014407        2.94500786159934        2.98139047632884
H           -1.91021910660406        0.58705969164213        2.27655161837459
H           -0.57733160228345       -3.14948723387391        0.10390264465904
H            1.84446992293397       -2.91456304912362        0.05101024597673
H            3.73648865797902       -2.58702525535363       -0.74631856701354
H            6.14146667768777       -2.30053244492151       -0.72908176190777
H            6.61022652565068        1.57768890037246       -1.93260311319914
H            7.59150756419014        3.76671413738369       -2.47837860991077
H            9.57709146757417        4.57782475846959       -1.25377116629426
H           10.57210874891819        3.18426687310957        0.52674008102311
H            9.58242775815388        1.00366193723066        1.08917618819998
H            9.77943629077930       -0.66299903107220       -1.21624033385182
H           11.25474435587352       -2.54922519195669       -0.65430990149562
H           10.61707142107891       -4.13696665361145        1.12723442974245
H            8.49766512092549       -3.81501793681664        2.35401999914474
H            7.02817751256918       -1.91872080960482        1.80842885941122
H            5.66466099632928        1.74167338419701        0.60983868227555
H            3.25848722429253        1.46084799122426        0.62285683710215
H            1.38240251873316        1.35143420072113       -0.30402131488956
H           -1.00201791106992        1.10656290424888       -0.25160692047236
H           -6.67237076532637       -2.86687815367840        0.95545257560650
H           -8.07302567991789       -4.84381164480603        0.56579665315008
H           -7.30175633417643       -6.63747357694829       -0.94434876579770
H           -5.10022030537536       -6.45072352312501       -2.04808310495467
H           -3.69472260957022       -4.45057039672386       -1.65991827643625
H           -6.65975987290363       -1.39614688285224       -1.52252767289092
H           -8.89839068793844       -0.39221197421802       -1.36127053703162
H           -9.43260165915660        1.16147794316796        0.48531493785141
H           -7.71916743507440        1.67360708825213        2.18916928039014
H           -5.49380460769487        0.65864270924812        2.04971781166834
H           -4.64227091839174        1.70356779024341       -0.83167145713118
