81
 energy: -125.524244285308 gnorm: 0.000032821163 xtb: 6.7.1 (edcfbbe)
Br          -5.00608059286607        4.53918035774294       -0.55393404443054
C           -3.96462055228755        3.22599956742622        0.37533690159999
C           -3.16462609184205        3.62254139344377        1.43614002987156
C           -2.41455467737473        2.65617768190181        2.09473558877315
C           -2.47399132595680        1.33242686685321        1.71376408051534
C           -3.28775142616748        0.94605169762268        0.64089281478040
N           -3.38710849132773       -0.39273462495556        0.27305872942650
C           -2.34582474189278       -1.31381000418377        0.07389752974112
C           -0.96697713306744       -1.05957470093908        0.01174697649683
C           -0.07752268894235       -2.17648354547298        0.03734447228199
C            1.26974800556658       -2.01786977198701       -0.00311757437848
C            1.87575414427531       -0.72961892684386       -0.08089309425418
C            3.29086472970753       -0.55369686833365       -0.07822318922327
C            4.18254750875298       -1.60751857447627       -0.40631065916877
C            5.53893473584136       -1.43720753928891       -0.40010748841205
C            6.11100690540491       -0.19678553024541       -0.06316394523874
N            7.48618140327452       -0.02292841841636       -0.05689607337111
C            8.04392098008189        1.21260400224534       -0.40558504055036
C            7.48755765680167        1.97413395250564       -1.43556529645951
C            8.04135225709146        3.19355451277036       -1.77267033565049
C            9.15447640795203        3.67019163928873       -1.09698186008707
C            9.71259524026512        2.91574887348714       -0.07605330381923
C            9.16501215627985        1.69661907670505        0.27208185041123
C            8.32977298364452       -1.08267439848168        0.29760973928206
C            9.53649845620448       -1.27917744409280       -0.37700083067724
C           10.36609367841052       -2.32495326925587       -0.02277518117398
C           10.00833683185914       -3.18899541736265        1.00107002062921
C            8.81135308094645       -2.99716646630027        1.67420572362122
C            7.97534022696240       -1.95295021042423        1.33055489285994
C            5.24492818275998        0.86153512389581        0.26727000612739
C            3.88897846039659        0.68806925318476        0.25978618808208
C            0.98220634153350        0.37352569775901       -0.18080586508612
C           -0.36917399514994        0.22425696977534       -0.14431883210078
N           -2.85842449850033       -2.53287423501066       -0.15711921609560
C           -4.18785025298812       -2.42035590064901       -0.16565998915725
C           -5.03257294618019       -3.58829904718260       -0.36762143673132
C           -6.26715898875450       -3.72803473951363        0.26653242419951
C           -7.03276689826616       -4.85973519464449        0.05734360282029
C           -6.57982981284097       -5.86761479531787       -0.77918305885389
C           -5.34452905156010       -5.74625782780826       -1.39656867431860
C           -4.57406335600989       -4.61869059811124       -1.18973896490365
C           -4.56912003874489       -1.08673089837813        0.09388232570371
C           -5.88751728877655       -0.50959030526057        0.20431414062971
C           -6.86932709598309       -0.83095801260152       -0.74308783342988
C           -8.13197562199946       -0.28242891610854       -0.65861582025250
C           -8.44964618575079        0.59297663534345        0.37061717383560
C           -7.49229035820977        0.90560564958230        1.32416918573516
C           -6.22463405863980        0.36546612654376        1.24559518799627
C           -4.03681126661950        1.91364084302896       -0.03793657487095
H           -3.12919941788394        4.65626431827968        1.73978793589932
H           -1.78851517419770        2.94694009358177        2.92422083588701
H           -1.90308057304229        0.58157549308879        2.23844089165243
H           -0.52129847970112       -3.15654133235736        0.11908784496446
H            1.89682671778145       -2.89299127661968        0.07021800796117
H            3.78447534779235       -2.56051455478131       -0.71643802973599
H            6.18643604200643       -2.25329417784738       -0.68653252037762
H            6.63067832189195        1.59522333099740       -1.97279671131081
H            7.60619446112263        3.77183679407036       -2.57425829035918
H            9.58437715339504        4.62327014739231       -1.36509913786766
H           10.57612765686701        3.28335185249621        0.45824403071458
H            9.59222536980030        1.11562704379802        1.07603870124378
H            9.80921541116298       -0.61450789576949       -1.18339124215834
H           11.29436772829901       -2.47159084517583       -0.55476474281571
H           10.65869713061447       -4.00625830387223        1.27347588915341
H            8.53028848260843       -3.66088766171207        2.47840359042516
H            7.05039070737252       -1.79392449666026        1.86499467480361
H            5.66567261592630        1.81239668704456        0.56102925575591
H            3.26205022961689        1.51025583908700        0.56687643033946
H            1.38414856960378        1.36210515502306       -0.34514883395962
H           -0.99735947026339        1.08901394819310       -0.29250871815636
H           -6.61802070414471       -2.95673042900608        0.93610001644012
H           -7.98728807723731       -4.95732408309239        0.55425431731567
H           -7.18416690525072       -6.74786007159736       -0.94283538648250
H           -4.98264324798830       -6.53393282353289       -2.04159314162122
H           -3.60904631163710       -4.51000285130945       -1.66144758676905
H           -6.61920954534022       -1.50185913052572       -1.55219252050169
H           -8.87329911557107       -0.53160899819016       -1.40384641919758
H           -9.43690027155893        1.02565699595069        0.43106051548083
H           -7.73643029512821        1.57534854820844        2.13628004713146
H           -5.49496257185506        0.59475862582238        2.00910669071371
H           -4.65387075963938        1.63126189221714       -0.87679801759998
