  97
       -157.60139336
 C         -9.6899544319       -3.1359933314       -3.5130345189
 C        -10.4069178939       -2.2644772787       -2.7073705123
 C         -9.7455909627       -1.4092637897       -1.8491868071
 C         -8.3513298083       -1.4173936448       -1.7878210258
 C         -7.6530425770       -0.5205018161       -0.8763557909
 N         -8.3923212941        0.3054233634       -0.1095292313
 C         -7.7184298928        1.1117617310        0.7343715298
 C         -8.4872037025        2.0189754291        1.5759400016
 C         -7.8390612880        2.8838123689        2.4594867460
 C         -8.5732718015        3.7397563021        3.2541840270
 C         -9.9587832173        3.7459264310        3.1800340470
 C        -10.6084310334        2.8896231793        2.3041355000
 C         -9.8809402307        2.0305038493        1.5053890667
 N         -6.4145065633        1.1047379981        0.8305103329
 C         -5.7012382133        0.2698060319        0.0358916781
 C         -4.2866259924        0.2415856071        0.1198970433
 C         -3.5296433313       -0.6201702086       -0.7043112157
 C         -2.1643433669       -0.6580063713       -0.6128821158
 C         -1.4922876462        0.1598437896        0.3061768343
 N         -0.0968102223        0.1026251643        0.4085012104
 C          0.7619913099        1.1772630088        0.3973634745
 C          0.4900127084        2.5321199872        0.2489506476
 C          1.5530376555        3.4101552299        0.2467421592
 C          2.8799230962        2.9761029461        0.3902369503
 C          3.9800841349        3.9465817929        0.3875020718
 C          5.0636491841        3.7858899648        1.2624325604
 C          6.1129469947        4.6793819032        1.2790206530
 C          6.0880178336        5.7504111658        0.3995719671
 S          7.3151322040        6.9848583645        0.2475978779
 C          6.4022922949        7.7694498209       -1.0248934295
 C          6.7794518660        8.9172622895       -1.7013814644
 C          5.9405972612        9.4065394757       -2.6844438619
 C          4.7456567175        8.7605271366       -2.9856283257
 C          4.3718094619        7.6166713296       -2.3100996326
 C          5.2000844437        7.1036466579       -1.3165725584
 C          5.0167241540        5.9362432432       -0.4916633983
 C          3.9658363578        5.0291652482       -0.4841452981
 C          3.1481698929        1.6150475931        0.5191792892
 C          2.0976406695        0.7164198328        0.5115507445
 C          2.0242372633       -0.7178142102        0.5909939845
 C          2.9761403403       -1.7130908223        0.7146166815
 C          2.5652750151       -3.0428823396        0.7775960536
 C          3.5532549849       -4.1218947961        0.8794385206
 C          4.6989885241       -3.9667863007        1.6723263063
 C          5.6399528386       -4.9682929232        1.7798287660
 C          5.4407018367       -6.1470537674        1.0781811173
 S          6.5052564121       -7.5324717181        1.0686137684
 C          5.4303230974       -8.3815888581       -0.0233778599
 C          5.6267982833       -9.6579052205       -0.5232123917
 C          4.6763583232      -10.1825890078       -1.3782144580
 C          3.5496730900       -9.4448414047       -1.7279480896
 C          3.3558846516       -8.1730650283       -1.2284897515
 C          4.2986349973       -7.6227893382       -0.3655491833
 C          4.3031901655       -6.3308176994        0.2727095880
 C          3.3654960303       -5.3114818605        0.1845936126
 C          1.1947950797       -3.3464540458        0.7452234586
 C          0.2296377836       -2.3694919936        0.6300688831
 C          0.6476657118       -1.0478879444        0.5273106325
 C         -2.2300109691        1.0255483455        1.1249629153
 C         -3.5956311408        1.0678633086        1.0336285481
 N         -6.3466787944       -0.5460113577       -0.8335721860
 C         -7.6353237663       -2.2966101423       -2.6020375212
 C         -8.3036547830       -3.1482511587       -3.4573042311
 H        -10.2097937323       -3.8048780938       -4.1832498767
 H        -11.4864370759       -2.2552034388       -2.7509567318
 H        -10.2886073949       -0.7257814455       -1.2150788962
 H         -6.7610862756        2.8677262231        2.5054910378
 H         -8.0679061435        4.4085073184        3.9357485391
 H        -10.5303660814        4.4174347119        3.8038770842
 H        -11.6873239166        2.8940144049        2.2470970326
 H        -10.3711236002        1.3570045036        0.8198036664
 H         -4.0548205275       -1.2396778814       -1.4142548595
 H         -1.5880103810       -1.2968496482       -1.2666534824
 H         -0.5216905557        2.8875191990        0.1293809785
 H          1.3591125817        4.4681005447        0.1529812390
 H          5.0630110502        2.9573697795        1.9545421544
 H          6.9388298793        4.5546057740        1.9620629348
 H          7.7078234419        9.4119692474       -1.4617061565
 H          6.2164634366       10.3000281020       -3.2237280004
 H          4.1052951264        9.1600831142       -3.7575842203
 H          3.4443929400        7.1174205906       -2.5467189207
 H          3.1488369445        5.1538557189       -1.1786152302
 H          4.1661688334        1.2629713107        0.5900186958
 H          4.0259314702       -1.4627090447        0.7353020515
 H          4.8342010476       -3.0528117692        2.2305918899
 H          6.5151475786       -4.8442148786        2.3986207074
 H          6.5031975493      -10.2234514651       -0.2473810115
 H          4.8107647769      -11.1761038150       -1.7784730397
 H          2.8195943005       -9.8744826155       -2.3972669679
 H          2.4806029065       -7.6032516286       -1.5012836181
 H          2.4998238854       -5.4376225549       -0.4476825541
 H          0.8880977852       -4.3768347126        0.8443938207
 H         -0.8191440700       -2.6230344982        0.6353465137
 H         -1.7098152736        1.6334907349        1.8512117554
 H         -4.1727671599        1.7205134700        1.6696951752
 H         -6.5576095272       -2.2951774603       -2.5473334167
 H         -7.7458229121       -3.8274144073       -4.0858290343
