97
 energy: -157.681817582763 gnorm: 0.000071401485 xtb: 6.7.1 (edcfbbe)
C           -9.64345794994842       -3.46505850402048       -3.43223942034106
C          -10.37904178428654       -2.56453762668281       -2.67742892853347
C           -9.73689135448853       -1.68852038649797       -1.82412098119379
C           -8.34744599134475       -1.70791009372215       -1.72051346961069
C           -7.66418836532595       -0.78162296102923       -0.81732199380087
N           -8.40945009909058        0.04436103979050       -0.08865964989031
C           -7.74897563268649        0.86948543637014        0.71857230935156
C           -8.52723891756910        1.79557962810481        1.54144665514648
C           -7.88041078186339        2.70114822278360        2.38019071788083
C           -8.61819967021165        3.57337670450251        3.15646969994154
C          -10.00328370589972        3.54999612648965        3.10362589994051
C          -10.65158793535359        2.65109172478609        2.27085692613388
C           -9.91968129648397        1.77647151492517        1.49163683044228
N           -6.42347489349069        0.90358729683226        0.82330778369768
C           -5.75680869000381        0.04273176502286        0.05947801792954
C           -4.29808030966713        0.04111584922888        0.14205767219087
C           -3.54780199790673       -0.80395543402527       -0.67440516152911
C           -2.17185093514527       -0.80514114953211       -0.59929463361777
C           -1.51938127418842        0.03643873005954        0.30162783354313
N           -0.12442133600788        0.03293141530094        0.38253737534248
C            0.69043369251713        1.14918207546901        0.37749714132436
C            0.36201774012901        2.48996551215006        0.23786225401747
C            1.38902182032334        3.41150516223927        0.23195388606000
C            2.73222745466206        3.03211803327954        0.35721443903711
C            3.78981279881825        4.05380200279830        0.35817702511340
C            4.86863895779817        3.94679086160886        1.24476553052999
C            5.87395512310781        4.89042003401441        1.27124449855139
C            5.80408997507647        5.95937061899352        0.39308100182148
S            6.96711044878453        7.25937500518732        0.25902912928829
C            6.02720309882878        7.99918077294237       -1.01910906465954
C            6.34752044839408        9.17042889260832       -1.68514378167124
C            5.49382896069614        9.61952251833822       -2.67413809247018
C            4.33944354766151        8.91062378344872       -2.99272906707814
C            4.02190376944624        7.74406856228258       -2.32798648582475
C            4.86587255570497        7.27079967378940       -1.32759847170836
C            4.73580953605570        6.09200749546489       -0.50970966904134
C            3.73230406860960        5.13110968552043       -0.51526584761121
C            3.05664525970503        1.68619911333000        0.47095089104255
C            2.04094936883993        0.74383446327969        0.47295036811334
C            2.03214420217359       -0.69151196055597        0.54621275358622
C            3.03432664527062       -1.63989645906453        0.67335815163429
C            2.69058453881478       -2.98398807940021        0.74107728663304
C            3.73253987523551       -4.01418915276878        0.86411937950971
C            4.83073800403531       -3.81014009150456        1.70875087038423
C            5.82082485610059       -4.76073653029072        1.84293997839652
C            5.71587034491257       -5.93574634773597        1.11694461180410
S            6.85498593427933       -7.26342916842625        1.13632077570076
C            5.87699168704255       -8.14944842596899       -0.01389703604821
C            6.16469060737362       -9.40466912965160       -0.52352840087107
C            5.28351727094674       -9.96555491730550       -1.42769036811057
C            4.13410205659481       -9.28416594161888       -1.81654347006948
C            3.84907563198306       -8.03385261568361       -1.30762940749791
C            4.72113761327186       -7.44733599124038       -0.39520349962035
C            4.62701310479590       -6.16783112215048        0.26001593792902
C            3.63931645707378       -5.19761839928029        0.14457072735478
C            1.33966568409706       -3.35526376124647        0.70312394230850
C            0.32606471929121       -2.42681585509707        0.58379813765662
C            0.67728733552355       -1.08824960231746        0.48310544366622
C           -2.26777569566934        0.88065123532396        1.12190701664687
C           -3.64324018083345        0.88405931511542        1.03895475458611
N           -6.33528317555589       -0.81726514777942       -0.77411292682002
C           -7.61263682986123       -2.61488779181436       -2.48169200779045
C           -8.26092700947041       -3.48845718850884       -3.33273610618341
H          -10.14805105899874       -4.14927027823894       -4.09877207159536
H          -11.45619180101450       -2.54796084797565       -2.75678476165657
H          -10.29252707358307       -0.98069228300982       -1.22950414440686
H           -6.80218645502939        2.70528942218869        2.40781984741721
H           -8.11524883432448        4.27484173104829        3.80601809103465
H          -10.57801724512839        4.23296650953126        3.71210767897829
H          -11.73094298286276        2.63467530492620        2.23147025001101
H          -10.40665259768934        1.06974619025198        0.83839082825304
H           -4.06394342362985       -1.44591111264733       -1.37043783151985
H           -1.58908801992080       -1.44049406834579       -1.24928718495954
H           -0.66320574508953        2.80875624907617        0.12691315376329
H            1.15011655872302        4.46129139587675        0.14743407542470
H            4.90127759154252        3.11790665206359        1.93592333370910
H            6.69877241576924        4.80508179950154        1.96176831860129
H            7.24465581255828        9.71383784130999       -1.43197465369280
H            5.72590391423312       10.53047165558262       -3.20510685281000
H            3.68635236326079        9.27965427949803       -3.76945975184750
H            3.12597978427240        7.19590863088797       -2.57789311267217
H            2.91738749058305        5.21502007826019       -1.21845905292450
H            4.08839606460457        1.37396888446251        0.52826858784057
H            4.06984634895744       -1.33630416372450        0.70025346241749
H            4.89106717822701       -2.89769304860757        2.28278244525864
H            6.66075654275268       -4.59964356086977        2.50097092653757
H            7.05816578932080       -9.92606569143833       -0.21680477426181
H            5.48998504596517      -10.94320388911857       -1.83658456212707
H            3.45924396275464       -9.74118743357554       -2.52487336436947
H            2.95694805849416       -7.50728681815284       -1.61166650702879
H            2.80795529724911       -5.35945614104106       -0.52500036690536
H            1.08461866034830       -4.40040859200990        0.79794807863414
H           -0.70765518937456       -2.73751766123996        0.58631286882371
H           -1.76128587212347        1.51390447830428        1.83480961897932
H           -4.23346489749790        1.52765740065990        1.67169044088289
H           -6.53792071718809       -2.61915513856642       -2.39049593287567
H           -7.68994414221422       -4.19120753619416       -3.92186076630837
