78
 energy: -102.272110993909 gnorm: 0.000049146367 xtb: 6.7.1 (edcfbbe)
C           -5.54942190322446        4.73976303207181        0.60126990782617
C           -4.14056748321720        4.97523021632191        0.03641563068187
C           -3.46926376974079        6.07044845697460        0.86938383602215
C           -4.24079717307007        5.47158826671785       -1.41394576515067
C           -3.37094751105082        3.66774915812708        0.06002370529521
C           -3.86085594186690        2.56426480133209       -0.65320834123669
C           -3.20363822011799        1.35915733356409       -0.66708558748740
C           -2.00598471714147        1.19667349756208        0.04536707313128
N           -1.30493450371326       -0.00389242306014        0.00448608757324
C            0.06613381593731        0.00177450128183        0.00865214979614
C            0.81141376310976       -1.04785956355768        0.65207040982246
C            2.16358591097035       -1.02761059802002        0.65761153655199
C            2.91833713701746        0.01167385735331        0.01299345493170
B            4.44733410055118        0.01533278405716        0.01107568766479
O            5.22925464914611       -0.96171743169096        0.59899853412479
C            6.58561897033794       -0.53846137125328        0.55749924863926
C            7.48891996405062       -1.73407879471510        0.26051857415986
C            6.92832669732277        0.01360276118713        1.94870577978387
C            6.58007582396822        0.57693228778128       -0.54845288271986
C            6.91476112123915        0.02583864948732       -1.94202507983457
C            7.48165755993599        1.77540012388737       -0.25790199944060
O            5.22213008854498        0.99573567639335       -0.58082542609998
C            2.15833405272838        1.04684999097563       -0.63208411123583
C            0.80608106924662        1.05759739454037       -0.63086793907476
C           -1.99660314025804       -1.20956644600832       -0.04134762388674
C           -3.19952585594960       -1.37997545145222        0.66041729332686
C           -3.84808106959465       -2.58968965021109        0.64172020225746
C           -3.34392081834006       -3.69037778030276       -0.06592272587481
C           -4.10408457421055       -5.00348014125120       -0.04732639719545
C           -4.21124409302411       -5.49950349311206        1.40267020506996
C           -3.41850502438324       -6.09421455215184       -0.87453509400474
C           -5.51050498080940       -4.77913361703717       -0.62269247051804
C           -2.14623414437318       -3.50932865916997       -0.75961746982774
C           -1.48071876193872       -2.30448525123768       -0.75155582885998
C           -1.50423029854423        2.29447796957752        0.76109512221508
C           -2.17833165674087        3.49454250503037        0.76435552110278
H           -6.09816715614330        4.01274426644993        0.00915234031003
H           -5.48753064838290        4.37090462560107        1.62303019002385
H           -6.11190813227381        5.67096870647695        0.60382519753753
H           -3.39714267745178        5.77881776843734        1.91461309007566
H           -2.47458496445326        6.29515381161348        0.49170583233858
H           -4.06234171972485        6.98117416609809        0.81547954417570
H           -4.76935387619843        4.75956492604040       -2.04155116367528
H           -3.24631610247675        5.62014435459773       -1.82940970844853
H           -4.77488285812301        6.41874701131509       -1.44904164609987
H           -4.77523554461151        2.65428598349519       -1.21956802851217
H           -3.59071545017033        0.53247921009547       -1.24494801210829
H            0.26031888047232       -1.81078297886035        1.18361946530262
H            2.72161590064821       -1.79614428883223        1.17007458729463
H            8.51677077867355       -1.40562852454629        0.13003151789642
H            7.44406465939651       -2.42652357265806        1.09769672612813
H            7.16053112294090       -2.26121508521117       -0.62945006275135
H            6.28911647241171        0.86177578598506        2.18154504547769
H            6.73641646901805       -0.76391969813798        2.68492322009601
H            7.97145289429387        0.30972898380549        2.00972951666017
H            6.27630583613348       -0.82412487011503       -2.17038363571902
H            6.71543527627585        0.80281412824788       -2.67685070334179
H            7.95825918318498       -0.26732298185428       -2.01042166359292
H            7.15838326300643        2.30121876240332        0.63470904158808
H            8.51154123082101        1.45025888214490       -0.13538249999820
H            7.42814844728039        2.46793042573805       -1.09450359358196
H            2.71261727346951        1.81981916323701       -1.14191319559517
H            0.25142780525276        1.81727032372292       -1.16334129541009
H           -3.59776400712377       -0.55557415981592        1.23394866455902
H           -4.76698821472824       -2.68558630592354        1.19975025952342
H           -3.21874639571951       -5.64106744539315        1.82526831450272
H           -4.73921078275169       -6.45019442854355        1.43474678911561
H           -4.74894799853248       -4.79051533783458        2.02593264609197
H           -4.00540818746417       -7.00916526000265       -0.82472443909651
H           -3.34044447723320       -5.80250247084312       -1.91931718982290
H           -2.42517251702902       -6.31162018106803       -0.48912452477270
H           -5.44394855140795       -4.41027105079079       -1.64415754323332
H           -6.06569742967576       -5.71469669228217       -0.62894177490501
H           -6.06931424264926       -4.05619677499658       -0.03501337242473
H           -1.71881729155988       -4.31776382813795       -1.32950191287071
H           -0.56888902343075       -2.17988450919098       -1.31625289848263
H           -0.59651698064035        2.17574348902805        1.33362890779951
H           -1.76183620619091        4.30542564887163        1.33880707088016
