  78
       -102.26790803
 C         -5.5668744982        4.7060112873        0.6088500836
 C         -4.1605152192        4.9597079071        0.0448314260
 C         -3.5008162509        6.0566699467        0.8846584102
 C         -4.2682316315        5.4650381350       -1.4022741387
 C         -3.3775691283        3.6612992114        0.0591012667
 C         -3.8602107137        2.5537898370       -0.6586557008
 C         -3.1951331136        1.3552466004       -0.6760607807
 C         -1.9920352090        1.1990260037        0.0343999239
 N         -1.2909576590        0.0006870395       -0.0003870332
 C          0.0819956643        0.0070694957        0.0044768483
 C          0.8225074227       -1.0334298626        0.6530751994
 C          2.1791169486       -1.0172035568        0.6512213621
 C          2.9280980059        0.0117864965        0.0001536632
 B          4.4590499394        0.0120406052       -0.0023548491
 O          5.2368003620       -0.9667654290        0.5869640483
 C          6.5939979527       -0.5450908165        0.5519434470
 C          7.4974715272       -1.7414823436        0.2590561843
 C          6.9296311521        0.0059229606        1.9452580100
 C          6.5947241902        0.5707522104       -0.5535807010
 C          6.9363325959        0.0205885627       -1.9457453350
 C          7.4954574379        1.7683664895       -0.2571111412
 O          5.2369900823        0.9905047862       -0.5923117319
 C          2.1735871961        1.0401740265       -0.6457794410
 C          0.8168744622        1.0523655479       -0.6425819279
 C         -1.9818106866       -1.2025367066       -0.0384249920
 C         -3.1964593094       -1.3630997519        0.6517455571
 C         -3.8494319418       -2.5681323534        0.6357622402
 C         -3.3414883320       -3.6800401262       -0.0577329742
 C         -4.1120416757       -4.9856886362       -0.0431383007
 C         -4.2717913668       -5.4617957973        1.4090388397
 C         -3.4104203809       -6.0943784640       -0.8321479762
 C         -5.4974735351       -4.7558369440       -0.6663890631
 C         -2.1325567211       -3.5097554017       -0.7392040916
 C         -1.4619230573       -2.3100983103       -0.7344647692
 C         -1.4942808829        2.3035460117        0.7498124175
 C         -2.1783076702        3.4957996790        0.7584363314
 H         -6.1081691067        3.9766047853        0.0127163237
 H         -5.5003575977        4.3317652359        1.6284762591
 H         -6.1392898657        5.6311950490        0.6170591454
 H         -3.4239268657        5.7582242704        1.9276686766
 H         -2.5092599745        6.2953949319        0.5073153972
 H         -4.1042987637        6.9609716108        0.8379863868
 H         -4.7883460608        4.7506002752       -2.0341273982
 H         -3.2759604031        5.6287770969       -1.8174225888
 H         -4.8141958483        6.4056713165       -1.4304334437
 H         -4.7755732845        2.6396843741       -1.2240057124
 H         -3.5740260241        0.5272967150       -1.2573516746
 H          0.2733500789       -1.7924556248        1.1920901292
 H          2.7352698871       -1.7861635610        1.1652009077
 H          8.5269192800       -1.4144877662        0.1381716305
 H          7.4443657483       -2.4360322855        1.0939202999
 H          7.1758547094       -2.2657417568       -0.6349841543
 H          6.2891522291        0.8539329308        2.1751688756
 H          6.7336491384       -0.7720287357        2.6798952804
 H          7.9723318492        0.3019946617        2.0123333445
 H          6.2991493359       -0.8292553967       -2.1782117277
 H          6.7409059408        0.7980827866       -2.6810670069
 H          7.9802081298       -0.2724291757       -2.0088600621
 H          7.1653661850        2.2956658803        0.6321716788
 H          8.5236861381        1.4419084683       -0.1253809584
 H          7.4502130592        2.4600612553       -1.0948303351
 H          2.7253845462        1.8117235054       -1.1606298627
 H          0.2634905833        1.8113910576       -1.1772419983
 H         -3.5946680512       -0.5326602980        1.2164537673
 H         -4.7751646317       -2.6559764467        1.1836211760
 H         -3.2951987125       -5.6028344651        1.8673777307
 H         -4.8058133700       -6.4093206988        1.4348797928
 H         -4.8271423781       -4.7425200999        2.0043341528
 H         -4.0027853113       -7.0057447916       -0.7814641691
 H         -3.3033379989       -5.8224968288       -1.8796485300
 H         -2.4285689547       -6.3085819278       -0.4166290986
 H         -5.3945166539       -4.4054673107       -1.6913684462
 H         -6.0635441683       -5.6848486524       -0.6739762634
 H         -6.0646647138       -4.0158062429       -0.1087401858
 H         -1.7039232405       -4.3255032307       -1.2977808867
 H         -0.5457251291       -2.1928933652       -1.2935181836
 H         -0.5852206596        2.1895645572        1.3208905801
 H         -1.7678314524        4.3091550338        1.3338199881
