  59
        -85.63878428
 C         -2.6972097882       -1.8596160405       -2.2817041689
 C         -1.2708000575       -1.6749588544       -1.9161583317
 S          0.0062847971       -2.2144516755       -3.0094087720
 C          1.2773098655       -1.6730399802       -1.9098109630
 C          2.7054749512       -1.8571663271       -2.2687260708
 C          0.7141070504       -1.1283357326       -0.7901859345
 P          1.2904199453       -0.2203702935        0.6393687131
 C          1.5988482705        1.4964443399        0.1627676056
 C          1.5579868993        2.4908840578        1.1480177420
 C          1.6464939392        3.8191226563        0.7956584074
 C          1.7515001922        4.1814365473       -0.5413167065
 C          1.7757721424        3.1992742362       -1.5235602642
 C          1.6925645916        1.8669688166       -1.1827966703
 C          2.9330610864       -0.9250302263        1.0194145255
 C          4.0107159630       -0.1216778041        1.3923017554
 C          5.2006626132       -0.7077450481        1.7767698120
 C          5.3169055172       -2.0890380589        1.8297515057
 C          4.2316869605       -2.8909159610        1.4993204577
 C          3.0392078341       -2.3140158979        1.1178590020
 C         -0.7138865060       -1.1297463858       -0.7935771290
 P         -1.2983389177       -0.2180534396        0.6300840795
 C         -2.9380778245       -0.9254973748        1.0137022255
 C         -3.0406738914       -2.3148772167        1.1144201703
 C         -4.2285610275       -2.8935840130        1.5068969919
 C         -5.3122388441       -2.0935883205        1.8472586455
 C         -5.1992531796       -0.7120412236        1.7919654670
 C         -4.0142468812       -0.1239380177        1.3958583529
 C         -1.6065422438        1.4958252306        0.1431685326
 C         -1.6846390564        1.8591017774       -1.2053555481
 C         -1.7626252043        3.1895528486       -1.5545959001
 C         -1.7481680270        4.1771264782       -0.5778221387
 C         -1.6588874296        3.8222543726        0.7622572599
 C         -1.5758130290        2.4959421141        1.1231319804
 H         -3.0173439362       -2.8889759146       -2.1055217498
 H         -2.8541813679       -1.6381634873       -3.3370576024
 H         -3.3207166470       -1.2010253307       -1.6778557512
 H          3.0308217378       -2.8810801023       -2.0712672861
 H          2.8630542737       -1.6558318435       -3.3278412264
 H          3.3247900156       -1.1838641397       -1.6768819798
 H          1.4670860674        2.1992324098        2.1858627270
 H          1.6271124992        4.5822917271        1.5603200776
 H          1.8116956240        5.2233531665       -0.8165953540
 H          1.8573755811        3.4810624611       -2.5635540781
 H          1.7037890002        1.1023417576       -1.9467654005
 H          3.9170805302        0.9542889888        1.3415076370
 H          6.0442227504       -0.0855780600        2.0395110482
 H          6.2478642894       -2.5410900827        2.1377088921
 H          4.3212936835       -3.9665793580        1.5482460176
 H          2.1829650229       -2.9249263662        0.8631003499
 H         -2.1855711745       -2.9241689462        0.8522618362
 H         -4.3156823543       -3.9694280833        1.5573483382
 H         -6.2389897498       -2.5475094484        2.1649019222
 H         -6.0415136687       -0.0914949017        2.0623626268
 H         -3.9233018687        0.9521360881        1.3432037833
 H         -1.6878065310        1.0905366023       -1.9652027277
 H         -1.8315863626        3.4655014941       -2.5970209697
 H         -1.8035894767        5.2175723059       -0.8597526965
 H         -1.6470333594        4.5896919040        1.5228239816
 H         -1.4964616656        2.2100421534        2.1637272893
  59
        -85.63874165
 C         -2.6471178671       -0.9482368028       -2.8432013536
 C         -1.2272488683       -0.7305245685       -2.4705172334
 S          0.0698726854       -1.3458242544       -3.4982400511
 C          1.3205472047       -0.7090496280       -2.4264842560
 C          2.7554027583       -0.9109471010       -2.7464996037
 C          0.7371435636       -0.0689813216       -1.3701088741
 P          1.2807847168        0.6479854677        0.1754466788
 C          2.9053481726        1.4039639744       -0.1775780936
 C          3.9606629229        1.3368493910        0.7328566925
 C          5.1259226383        2.0346347759        0.4829920701
 C          5.2387025152        2.8288463812       -0.6486944189
 C          4.1748747044        2.9281614005       -1.5369467685
 C          3.0062884870        2.2391952889       -1.2926443005
 C          1.5967966559       -0.6798406710        1.3606434930
 C          1.6851564680       -2.0125628828        0.9448863508
 C          1.7643259510       -3.0200778321        1.8810836031
 C          1.7410084084       -2.7249736135        3.2384586416
 C          1.6399349239       -1.4042207180        3.6568125468
 C          1.5550021525       -0.3890717449        2.7302054041
 C         -0.6911721820       -0.0808231211       -1.3947950249
 P         -1.3005662828        0.6165036983        0.1351610078
 C         -1.6191175409       -0.7239455463        1.3059681920
 C         -1.6915103612       -2.0534904691        0.8768332839
 C         -1.7730310671       -3.0703960273        1.8027668000
 C         -1.7671465746       -2.7879247036        3.1629049821
 C         -1.6826416178       -1.4701539657        3.5945641084
 C         -1.5965288538       -0.4456500394        2.6785494203
 C         -2.9322252485        1.3273757607       -0.2722840714
 C         -3.0166954427        2.1632024293       -1.3881800316
 C         -4.1960630673        2.8162659059       -1.6749923017
 C         -5.2891854028        2.6797467368       -0.8284114775
 C         -5.1942651817        1.8859532813        0.3052781707
 C         -4.0177788423        1.2246229078        0.5979358607
 H         -2.9608665205       -0.2484812357       -3.6208574722
 H         -3.2834690390       -0.7971677381       -1.9718374631
 H         -2.7926866391       -1.9581078772       -3.2258989914
 H          3.0707220273       -0.2595335656       -3.5643173645
 H          3.3621709098       -0.6823828315       -1.8710165438
 H          2.9389908829       -1.9408733101       -3.0529004519
 H          3.8707098109        0.7095524680        1.6088175115
 H          5.9520382036        1.9636112666        1.1757735527
 H          6.1490088425        3.3791979657       -0.8336331667
 H          4.2613740205        3.5528295711       -2.4143132657
 H          2.1661572950        2.3125890379       -1.9708602922
 H          1.6957125077       -2.2417492725       -0.1113984993
 H          1.8417321147       -4.0476264253        1.5557087806
 H          1.7985400493       -3.5203021047        3.9659077812
 H          1.6211531857       -1.1736003247        4.7123392928
 H          1.4654602443        0.6418856587        3.0465697275
 H         -1.6881788766       -2.2731149442       -0.1815527631
 H         -1.8387801381       -4.0954194638        1.4669215370
 H         -1.8255782741       -3.5904760930        3.8823449054
 H         -1.6774513925       -1.2494973285        4.6523673165
 H         -1.5209207363        0.5831112534        3.0052833117
 H         -2.1542019376        2.2639740979       -2.0341429759
 H         -4.2688560173        3.4407301442       -2.5537175331
 H         -6.2090769359        3.2011520984       -1.0469898361
 H         -6.0438601228        1.7863745526        0.9655392905
 H         -3.9407280550        0.5976373512        1.4754729757
  59
        -85.63539588
 C         -2.6543218072       -1.6424959958       -2.2523021595
 C         -1.2509541828       -1.1794937213       -2.1207301665
 S         -0.0154019809       -1.6723616710       -3.2820162887
 C          1.2376226184       -0.7406054631       -2.4537606230
 C          2.6203105175       -0.7368240647       -2.9952883927
 C          0.6982742443       -0.0985879195       -1.3747053354
 P          1.2912018836        0.7246215155        0.1119409689
 C          2.8396404771        1.5522092349       -0.3810276959
 C          3.9430904456        1.5936693398        0.4690132849
 C          5.0656480272        2.3093153414        0.1011879882
 C          5.0807152937        3.0222120745       -1.0890058967
 C          3.9643432131        3.0228862284       -1.9139290393
 C          2.8409522329        2.3073649202       -1.5549894096
 C          1.7741206965       -0.5122490760        1.3299225558
 C          2.6165487562       -1.5733927196        0.9700452163
 C          2.8272660554       -2.6069106345        1.8573370671
 C          2.2134709203       -2.6033152980        3.1036522058
 C          1.3761127479       -1.5507790227        3.4633663391
 C          1.1502428544       -0.5176921663        2.5831115283
 C         -0.7053096522       -0.3308526186       -1.2051055014
 P         -1.2246872121        0.3219177789        0.3806286793
 C         -1.9791980961       -1.0590845659        1.2802763259
 C         -1.2841386409       -2.2732502421        1.2552829551
 C         -1.8141811847       -3.3857216933        1.8729978383
 C         -3.0393741360       -3.3069375385        2.5194536371
 C         -3.7363951603       -2.1051765834        2.5355274839
 C         -3.2145781561       -0.9839082871        1.9236667288
 C         -2.5311287417        1.5301975808        0.0979659286
 C         -2.9285828509        1.8809748822       -1.1961490130
 C         -3.8632001100        2.8761297058       -1.3812241303
 C         -4.3849784987        3.5650783227       -0.2912947218
 C         -3.9487080760        3.2609784016        0.9919891693
 C         -3.0149030156        2.2670709804        1.1893432464
 H         -3.2089881239       -1.3683033405       -1.3547229505
 H         -2.6919247617       -2.7248385129       -2.3777827915
 H         -3.1433456103       -1.1902420696       -3.1177264357
 H          2.9131636381       -1.7423653456       -3.2970791913
 H          2.6953389571       -0.0913174816       -3.8733608575
 H          3.3170765404       -0.3694603437       -2.2435642742
 H          3.9208920305        1.0388877899        1.3973826622
 H          5.9320472172        2.3183182377        0.7466972530
 H          5.9575215070        3.5877189144       -1.3675111588
 H          3.9738002742        3.5891864292       -2.8340082074
 H          1.9624010064        2.2972413199       -2.1866221401
 H          3.0887325761       -1.5709620154       -0.0029992207
 H          3.4747856975       -3.4267224267        1.5795338313
 H          2.3843554769       -3.4166012684        3.7925136440
 H          0.9008950890       -1.5490023863        4.4336525606
 H          0.4948064065        0.3043278779        2.8447608634
 H         -0.3270506276       -2.3285165267        0.7548125892
 H         -1.2716176635       -4.3195564730        1.8526689460
 H         -3.4529290795       -4.1774366157        3.0059902572
 H         -4.6940648307       -2.0445822710        3.0321759438
 H         -3.7674634999       -0.0561213945        1.9307471655
 H         -2.5126236262        1.3506052552       -2.0404366968
 H         -4.1898830717        3.1259925702       -2.3804237654
 H         -5.1127775695        4.3474214040       -0.4442855861
 H         -4.3345437053        3.8131895198        1.8370454307
 H         -2.6520164595        2.0411669572        2.1838294339
  59
        -85.63535940
 C         -2.5950513160       -0.9283065242       -2.6779547731
 C         -1.2035280911       -1.0930395127       -2.1891810980
 S          0.0512569765       -1.7770663529       -3.2253137187
 C          1.2777743670       -1.6261519671       -1.9621042069
 C          2.6662395226       -2.0769821202       -2.2337404808
 C          0.7154892464       -1.0993402225       -0.8331232055
 P          1.2829973025       -0.3287638299        0.6917439177
 C          1.7493120713        1.3796930439        0.3601062322
 C          1.1060523228        2.4098671293        1.0570747435
 C          1.3096211525        3.7216391138        0.6953672174
 C          2.1438697567        4.0283008244       -0.3760151046
 C          2.7792428197        3.0092308988       -1.0748717665
 C          2.5907086972        1.6916705630       -0.7170928715
 C          2.8338770797       -1.1862906916        1.1187066725
 C          3.9299406881       -0.4945264141        1.6308274099
 C          5.0518964208       -1.1905786449        2.0358057809
 C          5.0733601770       -2.5767347457        1.9776339013
 C          3.9643570587       -3.2707146998        1.5136362334
 C          2.8419862941       -2.5823049262        1.1027607948
 C         -0.6845064449       -0.8225513125       -0.9586452233
 P         -1.2302876579        0.1183544317        0.4653840229
 C         -2.5709165910       -0.7837308312        1.2643951106
 C         -2.9859047410       -2.0340544130        0.7954588854
 C         -3.9501819552       -2.7394413391        1.4816208810
 C         -4.4850814119       -2.2363239411        2.6628984801
 C         -4.0322161872       -1.0229191001        3.1648023933
 C         -3.0692649748       -0.3078841591        2.4861245169
 C         -1.9484404832        1.6515380481       -0.1819803600
 C         -1.2375098562        2.2926440487       -1.2023960543
 C         -1.7372531486        3.4420221297       -1.7761937597
 C         -2.9473910791        3.9667030780       -1.3459152565
 C         -3.6601641948        3.3254637987       -0.3404826885
 C         -3.1686941008        2.1759387126        0.2436365940
 H         -3.1592228307       -0.3315455337       -1.9611265775
 H         -3.0916022431       -1.8931695461       -2.7983385272
 H         -2.6050594574       -0.4266232784       -3.6454322066
 H          2.9741572971       -1.7772526451       -3.2352000630
 H          3.3497271832       -1.6472503824       -1.5028995091
 H          2.7442257099       -3.1649325261       -2.1731621254
 H          0.4535083078        2.1543787784        1.8832823762
 H          0.8181299173        4.5154789623        1.2389995593
 H          2.2960544519        5.0573661665       -0.6642251572
 H          3.4253405495        3.2503832529       -1.9073428793
 H          3.0784935849        0.8929024288       -1.2592858153
 H          3.9030554840        0.5857303876        1.6785188807
 H          5.9130562822       -0.6527789459        2.4053075496
 H          5.9492830725       -3.1163951569        2.3055642423
 H          3.9782505063       -4.3505469971        1.4810854498
 H          1.9686572021       -3.1076821685        0.7391287948
 H         -2.5593686879       -2.4268491479       -0.1159761913
 H         -4.2899685671       -3.6920708822        1.1014426083
 H         -5.2359776361       -2.7970827848        3.1984762180
 H         -4.4280397381       -0.6442709135        4.0963945987
 H         -2.6931572973        0.6255155902        2.8848432110
 H         -0.2914734291        1.8843652086       -1.5304246967
 H         -1.1816271267        3.9339346345       -2.5611456092
 H         -3.3376155439        4.8685326348       -1.7930307027
 H         -4.6066881187        3.7285286211       -0.0100539920
 H         -3.7342981480        1.6768275569        1.0166210870
  59
        -85.63532286
 C         -2.6506217685       -1.6748282355       -2.2387239651
 C         -1.2461865970       -1.2186040079       -2.0959569314
 S         -0.0080198287       -1.6975478749       -3.2599446502
 C          1.2391414563       -0.7597459056       -2.4285893074
 C          2.6190177668       -0.7372466331       -2.9767369992
 C          0.6967398369       -0.1303115226       -1.3442677826
 P          1.2848196137        0.6939180943        0.1434540911
 C          2.7930078824        1.5852094240       -0.3628340203
 C          3.9010171971        1.6762972173        0.4774737521
 C          4.9863891405        2.4425488307        0.1000789625
 C          4.9592474902        3.1549489067       -1.0901953829
 C          3.8373543927        3.1042752827       -1.9059056583
 C          2.7505726382        2.3389203765       -1.5369429463
 C          1.8350556867       -0.5482591591        1.3266888212
 C          2.7356596285       -1.5480045600        0.9328921821
 C          3.0168962289       -2.5884150583        1.7924030573
 C          2.4166321348       -2.6523480973        3.0432974190
 C          1.5187404540       -1.6625013235        3.4348959465
 C          1.2229027026       -0.6233527412        2.5824997285
 C         -0.7046460960       -0.3733619878       -1.1747967367
 P         -1.2326609829        0.2802826821        0.4079848974
 C         -2.0522770636       -1.0765359427        1.2863686261
 C         -1.3642432332       -2.2943739953        1.3283454462
 C         -1.9446299049       -3.3957535436        1.9202094970
 C         -3.2138381059       -3.3019705162        2.4734742064
 C         -3.9020569786       -2.0955859581        2.4248179564
 C         -3.3304671362       -0.9851897414        1.8390577850
 C         -2.4929384098        1.5307884476        0.1019138670
 C         -2.8392714231        1.9085548838       -1.1991472486
 C         -3.7346534390        2.9360012247       -1.4007296233
 C         -4.2671994022        3.6291071857       -0.3187116082
 C         -3.8835056298        3.2941107147        0.9736973526
 C         -2.9892461790        2.2677579470        1.1873786844
 H         -2.6943488799       -2.7574460032       -2.3587652692
 H         -3.1274982019       -1.2236486147       -3.1113230620
 H         -3.2124559654       -1.3918815472       -1.3484601543
 H          2.9498364832       -1.7475125287       -3.2189614800
 H          2.6650953735       -0.1448106114       -3.8933579979
 H          3.3032072544       -0.2985511924       -2.2523856821
 H          3.9124292459        1.1210088457        1.4057490415
 H          5.8572402660        2.4916684772        0.7378240276
 H          5.8070314691        3.7595298510       -1.3760670607
 H          3.8125875577        3.6694165579       -2.8263697440
 H          1.8672934963        2.2899957179       -2.1602065770
 H          3.1993152401       -1.4923536969       -0.0423467310
 H          3.7101357300       -3.3603671270        1.4888836688
 H          2.6435812224       -3.4700945149        3.7103434755
 H          1.0518028192       -1.7136293150        4.4078158229
 H          0.5186873040        0.1485006886        2.8688089056
 H         -0.3733060037       -2.3593701323        0.8994176252
 H         -1.4076992887       -4.3325736550        1.9524408452
 H         -3.6686244370       -4.1639356788        2.9378563750
 H         -4.8938883837       -2.0246323694        2.8479233157
 H         -3.8762814327       -0.0542509327        1.7920302488
 H         -2.4154218705        1.3735304174       -2.0368391522
 H         -4.0220261369        3.2075769015       -2.4063109878
 H         -4.9635995075        4.4371975539       -0.4841654190
 H         -4.2798416352        3.8472856902        1.8133437480
 H         -2.6693964622        2.0142478648        2.1899670719
  59
        -85.63530081
 C         -2.3164921212       -2.4473953301       -2.1324979409
 C         -1.0426294160       -1.7005542955       -1.9677662934
 S          0.1982779535       -1.8438420780       -3.2089376001
 C          1.2596784073       -0.7044915285       -2.3931426522
 C          2.5614074304       -0.3279208913       -2.9985656534
 C          0.6588925726       -0.2542440476       -1.2479787965
 P          1.1812933285        0.5349593420        0.2931664786
 C          2.3416892235        1.8389034661       -0.1643642084
 C          3.3762896263        2.2301168656        0.6907114453
 C          4.1471096056        3.3287522098        0.3765260086
 C          3.8654537415        4.0826963732       -0.7576425689
 C          2.7989413170        3.7336050686       -1.5761326809
 C          2.0260822392        2.6335213825       -1.2739712264
 C          2.0707601060       -0.6482152192        1.3031360151
 C          3.3473617001       -1.0848980825        0.9075154097
 C          3.9507046325       -2.1259216462        1.5757093485
 C          3.3037574209       -2.7613678756        2.6297301707
 C          2.0294280829       -2.3472937781        3.0095094912
 C          1.4153501400       -1.3072496783        2.3516578056
 C         -0.6304705811       -0.8385264275       -1.0055820007
 P         -1.2057289979       -0.2006246033        0.5978869506
 C         -2.5468810714       -1.2750412278        1.1521874228
 C         -2.2679396701       -2.6489669406        1.2401096983
 C         -3.1874271717       -3.5052929535        1.8031244307
 C         -4.3756504991       -3.0090360858        2.3261917290
 C         -4.6286421978       -1.6405773861        2.2954148761
 C         -3.7141755971       -0.7731010187        1.7404055452
 C         -1.9529307360        1.3782331177        0.1440946995
 C         -3.0714419095        1.4037955532       -0.6919938574
 C         -3.5961424092        2.6152753439       -1.0942395516
 C         -3.0125529367        3.8039840153       -0.6788857720
 C         -1.8959537754        3.7796301634        0.1466884335
 C         -1.3677019681        2.5721331988        0.5565035544
 H         -2.9744600424       -2.2604762665       -1.2870560098
 H         -2.1265503609       -3.5188552731       -2.2022461685
 H         -2.8200070172       -2.1396524395       -3.0496829779
 H          3.0910885180       -1.2124793480       -3.3511876477
 H          2.4193450466        0.3393047060       -3.8516085083
 H          3.1741764508        0.1872598782       -2.2610155757
 H          3.5818961459        1.6452012369        1.5772375206
 H          4.9685228708        3.6109802147        1.0192408777
 H          4.4655346170        4.9491974694       -0.9916034439
 H          2.5699343509        4.3313038315       -2.4467764308
 H          1.1880290232        2.3518202343       -1.8980688621
 H          3.8463019050       -0.5930940154        0.0837343035
 H          4.9349276897       -2.4551236821        1.2735321392
 H          3.7849787205       -3.5761832520        3.1486617819
 H          1.5233394559       -2.8432598807        3.8252952609
 H          0.4234765945       -0.9783388941        2.6425313184
 H         -1.3358385248       -3.0211290438        0.8343883442
 H         -2.9818391030       -4.5653802020        1.8442200916
 H         -5.0940255657       -3.6805098056        2.7712271779
 H         -5.5460272929       -1.2551437698        2.7166584585
 H         -3.9035992703        0.2917375419        1.7250611934
 H         -3.5120753290        0.4723684618       -1.0197228729
 H         -4.4608834528        2.6371766806       -1.7418502178
 H         -3.4240513904        4.7485805302       -1.0017913259
 H         -1.4389630846        4.7048648290        0.4665179668
 H         -0.4985674698        2.5414017970        1.2039824562
