  42
        -77.03378898
 N          8.1101423419        0.7614984415       -0.0840910884
 C          6.9658313574        0.7290785481       -0.0540424605
 C          5.5504617696        0.6880989089       -0.0073206310
 C          4.9228701164        1.9567579936       -0.0534209220
 N          4.4344137332        2.9875883250       -0.1567000703
 C          4.8922928599       -0.4933419166       -0.0127560101
 C          3.4560128603       -0.6597697837        0.0546562588
 C          2.8299068378       -1.6725154704       -0.6842194079
 F          3.6014065578       -2.4630572763       -1.4525489012
 C          1.4684291102       -1.8707409454       -0.6876601277
 C          0.6462752359       -1.0513817715        0.0866610419
 C         -0.8041032017       -1.2718094823        0.1114254646
 C         -1.2712972354       -2.5655108740        0.3378958770
 C         -2.6182068014       -2.8340553309        0.4444001831
 C         -3.5599281049       -1.8108136426        0.3183777208
 C         -4.9579973252       -2.0536901704        0.4463881435
 C         -5.8588179861       -1.0524926420        0.3164514621
 C         -5.4419002481        0.2820560081        0.0385648916
 C         -6.3543898783        1.3290337361       -0.1024943061
 C         -5.9210292904        2.6129188660       -0.3787813650
 C         -4.5728667426        2.8830422501       -0.5242276439
 C         -3.6250735860        1.8672386779       -0.3885249305
 C         -2.2301040314        2.1017040738       -0.5543241052
 C         -1.3238104422        1.1075138201       -0.4042893378
 C         -1.7230327609       -0.2193904381       -0.0634326309
 C         -3.1104740779       -0.4935600644        0.0514177129
 C         -4.0569926134        0.5501285497       -0.0985830685
 C          1.2385598260       -0.0682590013        0.8792661088
 C          2.6041187762        0.1128031153        0.8544279865
 F          3.1385445242        1.0146530042        1.6934801010
 H          5.4724759400       -1.4020314120       -0.1216074126
 H          1.0495536767       -2.6489105906       -1.3057853830
 H         -0.5548244941       -3.3637305731        0.4678027528
 H         -2.9549273558       -3.8420519700        0.6375438030
 H         -5.2802535737       -3.0644183132        0.6522268533
 H         -6.9174127186       -1.2448519930        0.4173221700
 H         -7.4097572644        1.1249356067        0.0071093722
 H         -6.6418846924        3.4103911743       -0.4844891374
 H         -4.2404596431        3.8868729576       -0.7456059112
 H         -1.9078798474        3.0999424063       -0.8135110611
 H         -0.2751728889        1.3088786107       -0.5632022039
 H          0.6433382093        0.5412658097        1.5405780178
  42
        -77.03354915
 N          8.1848988365        1.1073869931        0.0104934582
 C          7.1349341963        0.6501244800        0.0086135928
 C          5.8350337990        0.0862413911       -0.0040920495
 C          5.8094720992       -1.3291821134        0.0213272703
 N          5.8152590956       -2.4711682507        0.1050480547
 C          4.7403238920        0.8784087761        0.0472788642
 C          3.3646639547        0.4290950983        0.0189108009
 C          2.8875001040       -0.6240648342       -0.7713377780
 F          3.7236180184       -1.2233043165       -1.6334755039
 C          1.5682424119       -1.0223571870       -0.7613220308
 C          0.6417875275       -0.3674732073        0.0483667839
 C         -0.7513233268       -0.8272939521        0.0944859871
 C         -0.9865516675       -2.1803660566        0.3329701026
 C         -2.2663303066       -2.6742826655        0.4602577401
 C         -3.3708789029       -1.8282514015        0.3422150206
 C         -4.7051573344       -2.3055800405        0.4903346621
 C         -5.7656602511       -1.4748752331        0.3641173568
 C         -5.5869327160       -0.0912750555        0.0709930404
 C         -6.6669584054        0.7819960425       -0.0685867022
 C         -6.4633031657        2.1187128922       -0.3587762117
 C         -5.1830146420        2.6150466158       -0.5204018108
 C         -4.0737101092        1.7782295441       -0.3879093494
 C         -2.7413285905        2.2468325199       -0.5717176222
 C         -1.6767432442        1.4236955574       -0.4262853710
 C         -1.8386118608        0.0507530176       -0.0726418498
 C         -3.1571787853       -0.4556337566        0.0618269957
 C         -4.2700572450        0.4091666933       -0.0837043454
 C          1.0764410926        0.7009943351        0.8343792461
 C          2.3981688712        1.0810908993        0.7972273742
 F          2.7982095765        2.1055513061        1.5726219635
 H          4.8885976416        1.9457101073        0.1642615586
 H          1.2620166911       -1.8293053461       -1.4079306321
 H         -0.1415438492       -2.8425122590        0.4541903121
 H         -2.4228277551       -3.7234061210        0.6636906259
 H         -4.8470956135       -3.3552992760        0.7045386361
 H         -6.7746840037       -1.8455846192        0.4759422472
 H         -7.6705120019        0.4008782071        0.0536957469
 H         -7.3113816580        2.7795609414       -0.4628391970
 H         -5.0304040037        3.6589441794       -0.7533376904
 H         -2.5987225315        3.2835435810       -0.8416408989
 H         -0.6792197661        1.7984792766       -0.6001186059
 H          0.3952606131        1.2201684185        1.4897895672
  42
        -77.03347165
 N          8.1631731524        0.5627867725       -0.7130414737
 C          7.0655651062        0.5294937335       -0.3871839859
 C          5.7109393608        0.4800800692        0.0252137998
 C          5.4048081968        1.3161575975        1.1267239664
 N          5.1714883520        2.0503165205        1.9739076700
 C          4.8049694917       -0.2503343031       -0.6639342627
 C          3.4074155491       -0.4100993084       -0.3235036123
 C          2.4405996221       -0.4864341986       -1.3357399339
 F          2.8544994951       -0.3934526752       -2.6129212615
 C          1.0947166607       -0.6248815361       -1.0860903713
 C          0.6421869176       -0.7270295722        0.2306112802
 C         -0.7808650680       -0.9245515024        0.5298081261
 C         -1.1375616294       -1.9876084995        1.3580835773
 C         -2.4573738626       -2.2790872389        1.6241721577
 C         -3.4819089512       -1.5072255288        1.0727136111
 C         -4.8562514268       -1.7990398804        1.3093665086
 C         -5.8376336895       -1.0389884932        0.7709460213
 C         -5.5318363005        0.0884045423       -0.0461500764
 C         -6.5284007857        0.8880684483       -0.6083525294
 C         -6.2016137685        1.9807657437       -1.3904735035
 C         -4.8783553008        2.3041208131       -1.6276405521
 C         -3.8493033702        1.5302514253       -1.0884536398
 C         -2.4750173241        1.8452269970       -1.2902921177
 C         -1.4902295305        1.0740017748       -0.7730757575
 C         -1.7827263633       -0.0954239489       -0.0095417741
 C         -3.1428142810       -0.3989797139        0.2571148976
 C         -4.1723682866        0.4046892868       -0.2921934914
 C          1.5796083461       -0.7098421277        1.2619190810
 C          2.9193043583       -0.5490336114        0.9817766439
 F          3.7897645322       -0.6070462073        2.0020046392
 H          5.1290403470       -0.7355177353       -1.5771963140
 H          0.4066352007       -0.6815173059       -1.9147859228
 H         -0.3584835609       -2.6138276804        1.7680392750
 H         -2.7087431388       -3.1179511284        2.2564854344
 H         -5.0940382335       -2.6496081423        1.9321010926
 H         -6.8777838131       -1.2693517385        0.9523359458
 H         -7.5647298352        0.6437453214       -0.4246287841
 H         -6.9864423619        2.5886912674       -1.8161484133
 H         -4.6290559808        3.1627275157       -2.2342265101
 H         -2.2337682763        2.7288198444       -1.8637689939
 H         -0.4571175271        1.3529086030       -0.9164000621
 H          1.2708956738       -0.8090307693        2.2904733593
  42
        -77.03342950
 N          8.1547308197        0.6136266504       -0.2427289700
 C          7.0123211182        0.6291799367       -0.1618990906
 C          5.6001532194        0.6496787146       -0.0442015929
 C          5.0333409829        1.9460081296        0.0094368042
 N          4.5940494076        3.0035399899       -0.0138869714
 C          4.8940754740       -0.5030601205       -0.0831211682
 C          3.4573742760       -0.6321754872        0.0333121869
 C          2.7851989182       -1.6049541517       -0.7195028303
 F          3.5114609386       -2.3784424344       -1.5467671590
 C          1.4223368020       -1.7819518879       -0.6746243677
 C          0.6442643933       -0.9819073484        0.1635986724
 C         -0.8060493612       -1.2070722889        0.2205447654
 C         -1.2503274688       -2.5097409531        0.4426093413
 C         -2.5925980596       -2.8089019353        0.5172904689
 C         -3.5532238550       -1.8107089271        0.3441078643
 C         -4.9486325696       -2.0940434741        0.3948420188
 C         -5.8691898128       -1.1219679124        0.2001088437
 C         -5.4751708527        0.2231720279       -0.0592550311
 C         -6.4083744866        1.2390680449       -0.2729232297
 C         -5.9978476685        2.5354294070       -0.5244023361
 C         -4.6520293127        2.8491776085       -0.5712129613
 C         -3.6840616324        1.8640472273       -0.3680371421
 C         -2.2889966005        2.1425878993       -0.4394106438
 C         -1.3636297989        1.1721411916       -0.2543662398
 C         -1.7420650837       -0.1718930344        0.0401379869
 C         -3.1262310093       -0.4821081360        0.0973284152
 C         -4.0929516545        0.5338183350       -0.1057655231
 C          1.2814646243       -0.0345675564        0.9632558339
 C          2.6493145666        0.1256000473        0.8906515348
 F          3.2303406441        0.9902989682        1.7374207656
 H          5.4356261542       -1.4236786832       -0.2679605739
 H          0.9654405187       -2.5309019735       -1.3017436219
 H         -0.5187424425       -3.2916312880        0.5873235466
 H         -2.9110942967       -3.8232163583        0.7080813037
 H         -5.2520087084       -3.1131231527        0.5879076306
 H         -6.9258106871       -1.3459997579        0.2346288934
 H         -7.4617481015        1.0005543131       -0.2394393659
 H         -6.7346588350        3.3084021568       -0.6870715643
 H         -4.3373986579        3.8632554309       -0.7710083461
 H         -1.9823014153        3.1551030026       -0.6593834199
 H         -0.3139322751        1.4067995513       -0.3459966681
 H          0.7236621794        0.5615349519        1.6683091243
  42
        -77.03337948
 N          8.1662247062        0.7580447011        0.5253634914
 C          7.0690492056        0.6255465609        0.2252328442
 C          5.7095465346        0.4670307556       -0.1423099472
 C          5.4194332591        0.8260495774       -1.4810412063
 N          5.2262251712        1.0640294289       -2.5845558091
 C          4.8220737626       -0.0725445279        0.7235653642
 C          3.4081869060       -0.2691814059        0.4816815963
 C          2.7674215589       -1.4146380384        0.9727254142
 F          3.5066593318       -2.3106548051        1.6515459086
 C          1.4325444561       -1.6771393406        0.7679099694
 C          0.6435115927       -0.7578741170        0.0761943150
 C         -0.7752608649       -1.0463888783       -0.1676811515
 C         -1.1048972911       -2.2720640632       -0.7435393522
 C         -2.4079783098       -2.5898281265       -1.0582682928
 C         -3.4430342879       -1.6904333272       -0.7952894922
 C         -4.7980396420       -1.9840875906       -1.1239634710
 C         -5.7915688079       -1.1062130727       -0.8541068522
 C         -5.5194460379        0.1436379944       -0.2247764516
 C         -6.5297176179        1.0618243640        0.0665623870
 C         -6.2366631127        2.2646049076        0.6829198908
 C         -4.9347156437        2.5788684993        1.0261263488
 C         -3.8928632872        1.6911643187        0.7523443285
 C         -2.5432377074        1.9681703280        1.1133837491
 C         -1.5439351478        1.1002772504        0.8304432632
 C         -1.7937547498       -0.1273220663        0.1471622804
 C         -3.1362050753       -0.4524199248       -0.1775690680
 C         -4.1803019763        0.4596552054        0.1151060449
 C          1.2377170742        0.4099492886       -0.4000070481
 C          2.5828435189        0.6346787716       -0.1988368756
 F          3.0968518892        1.8044113960       -0.6109091295
 H          5.1947606276       -0.4373414044        1.6736502857
 H          1.0045460824       -2.5835282841        1.1659319668
 H         -0.3123022584       -2.9683366760       -0.9765885448
 H         -2.6363748310       -3.5391119368       -1.5202033413
 H         -5.0108506746       -2.9321446811       -1.5968888006
 H         -6.8165744805       -1.3363145423       -1.1074067064
 H         -7.5499733012        0.8218557935       -0.1959567098
 H         -7.0317388369        2.9627021058        0.9004053049
 H         -4.7124022986        3.5178540331        1.5121043665
 H         -2.3342562689        2.8926652252        1.6324795500
 H         -0.5343667500        1.3228842934        1.1416611186
 H          0.6623450566        1.1417211164       -0.9447204074
