  70
  -127.963857560000       0.222072639276505      !
 O         -3.5733048309       -5.1403688766       -1.7023555876
 C         -3.7551294888       -4.1973274155       -0.9541329543
 C         -5.0652623194       -3.9471667312       -0.3123210496
 C         -6.1264731196       -4.7982416138       -0.6090768437
 C         -7.3689836478       -4.6044101194       -0.0336791613
 C         -7.5662976810       -3.5546998183        0.8515421938
 C         -6.5197772047       -2.7046285151        1.1576335607
 C         -5.2643319266       -2.8874217647        0.5823812869
 C         -4.1777042325       -1.9538486824        0.9422650312
 O         -4.3314033971       -1.0567659863        1.7486792677
 C         -2.8807501233       -2.1741822991        0.2591411903
 C         -1.8405752074       -1.2979657905        0.5299109052
 C         -0.5964071037       -1.4528391482       -0.0780205827
 N          0.4370680491       -0.5540605409        0.1986355312
 C          0.1372851854        0.7980482546        0.3938604873
 C          0.8365568708        1.5570916008        1.3368323674
 C          0.5234232650        2.8855237559        1.5232132522
 C         -0.4894762248        3.4987815030        0.7861084207
 C         -1.1910527988        2.7416768510       -0.1610122837
 C         -0.8719291020        1.4052339874       -0.3497898239
 C         -2.2731842918        3.3263784475       -0.9881647581
 O         -2.8684000105        2.6689718156       -1.8206000034
 C         -2.5805985097        4.7495505464       -0.7383327869
 C         -3.5956669788        5.3531842313       -1.4770928271
 C         -3.9164070075        6.6834479135       -1.2794271928
 C         -3.2227939066        7.4300314184       -0.3382411861
 C         -2.2127856894        6.8423198798        0.4013012338
 C         -1.8807220319        5.5033571918        0.2130039868
 C         -0.7912234184        4.9220408848        1.0293781314
 O         -0.1828081750        5.5793943103        1.8537153239
 C          1.7564664276       -0.9982429795        0.2766427148
 C          2.0551138240       -2.2652010450        0.7901122650
 C          3.3624369653       -2.6913461396        0.8642237827
 C          4.4130449699       -1.8788489132        0.4367691442
 C          4.1189355179       -0.6083577710       -0.0758166442
 C          2.8015851062       -0.1821999754       -0.1538605436
 C          5.1811520579        0.3107892381       -0.5494135373
 O          4.9220234127        1.4151581208       -0.9876783982
 C          6.5656042417       -0.1942660550       -0.4495293679
 C          7.6072709872        0.6230225264       -0.8825527178
 C          8.9191407227        0.1930064830       -0.8070632686
 C          9.2069136557       -1.0641476604       -0.2960816511
 C          8.1815220863       -1.8851748003        0.1363913359
 C          6.8562242675       -1.4643305476        0.0659329885
 C          5.7948584710       -2.3816582171        0.5383713188
 O          6.0487409770       -3.4872618694        0.9809946962
 C         -0.4037059984       -2.5136930044       -0.9684452138
 C         -1.4343966055       -3.3877560240       -1.2348375063
 C         -2.6836499482       -3.2363508463       -0.6328223028
 H         -5.9503632712       -5.6099304974       -1.2993680216
 H         -8.1841155164       -5.2704296649       -0.2739170170
 H         -8.5353466480       -3.4010043647        1.3022320204
 H         -6.6500462917       -1.8823224366        1.8456968867
 H         -2.0175071414       -0.4963759063        1.2322016693
 H          1.6145073138        1.0945478238        1.9256187724
 H          1.0514769263        3.4790326766        2.2543607553
 H         -1.4206278693        0.8497227986       -1.0964361452
 H         -4.1221059686        4.7531647738       -2.2046202222
 H         -4.7059085265        7.1396165760       -1.8577375985
 H         -3.4703681180        8.4693546789       -0.1822287090
 H         -1.6596213847        7.4049937292        1.1387679753
 H          1.2558924715       -2.9019141462        1.1389196701
 H          3.6031820757       -3.6641119842        1.2662601735
 H          2.6050732502        0.7960917801       -0.5680214545
 H          7.3600673844        1.5979477489       -1.2760801827
 H          9.7177367084        0.8361072056       -1.1453232315
 H         10.2304068118       -1.4029271381       -0.2360277995
 H          8.3829417313       -2.8676226322        0.5371132533
 H          0.5526308091       -2.6361892173       -1.4545610127
 H         -1.2991084693       -4.2052844276       -1.9270133482
  70
  -127.963849960000       0.220293831181590      !
 O         -4.5013893050       -2.9325233522       -2.3599420035
 C         -3.7082313008       -3.1477177598       -1.4619398575
 C         -3.7288405082       -4.4063986791       -0.6831996067
 C         -4.6870700886       -5.3671605440       -0.9949564447
 C         -4.7463399565       -6.5583136743       -0.2949192321
 C         -3.8446514298       -6.8049924417        0.7300066120
 C         -2.8887311173       -5.8588561713        1.0501749702
 C         -2.8185729644       -4.6552213101        0.3524712785
 C         -1.7810241706       -3.6751831224        0.7335496954
 O         -0.9920374253       -3.8813087939        1.6356190571
 C         -1.7553275981       -2.4189864799       -0.0527360018
 C         -0.7934887974       -1.4700485744        0.2602731060
 C         -0.7151356273       -0.2707245428       -0.4436788997
 N          0.2732415500        0.6671450854       -0.1263594526
 C         -0.0092281565        2.0308308093       -0.1974174141
 C          0.9688166290        2.9450573539       -0.6039440982
 C          0.6723866110        4.2877834754       -0.6786601660
 C         -0.5982995717        4.7668181344       -0.3586673314
 C         -1.5809883958        3.8548737303        0.0486504280
 C         -1.2792984679        2.5037907131        0.1293899674
 C         -2.9538424437        4.2879571329        0.4025237249
 O         -3.8049239528        3.4925240734        0.7517198564
 C         -3.2229637336        5.7363319245        0.2961805996
 C         -4.4963087831        6.2037825406        0.6134864275
 C         -4.7950023881        7.5508821913        0.5258267901
 C         -3.8206311632        8.4506754199        0.1190639641
 C         -2.5524661133        7.9990681536       -0.1978081989
 C         -2.2386190350        6.6451762203       -0.1141730742
 C         -0.8662230691        6.2126780362       -0.4616918761
 O         -0.0096334633        7.0050162301       -0.8099386943
 C          1.5428649331        0.2237051312        0.2515154287
 C          2.2822057929        0.9076526589        1.2216394423
 C          3.5306062968        0.4536319478        1.5861837714
 C          4.0820481754       -0.6888465659        1.0059110520
 C          3.3433029217       -1.3780778295        0.0353931604
 C          2.0888146878       -0.9170202059       -0.3337451189
 C          3.8637920231       -2.5967618638       -0.6286991663
 O          3.2265846472       -3.1804491647       -1.4842678310
 C          5.1975738557       -3.0533810799       -0.1878083002
 C          5.7341001962       -4.2023851659       -0.7643520594
 C          6.9814253976       -4.6642893471       -0.3870227554
 C          7.7109004043       -3.9801301864        0.5743353500
 C          7.1891856582       -2.8380551820        1.1540374282
 C          5.9340047004       -2.3626752670        0.7837066853
 C          5.4227219905       -1.1329894392        1.4300694055
 O          6.0722064215       -0.5232329925        2.2599287951
 C         -1.6297382075       -0.0258661765       -1.4720990378
 C         -2.5894810260       -0.9646356695       -1.7805603312
 C         -2.6688512121       -2.1710951163       -1.0853516674
 H         -5.3791788515       -5.1544582227       -1.7963364636
 H         -5.4943360970       -7.2950629532       -0.5470007822
 H         -3.8880169074       -7.7345952984        1.2775440355
 H         -2.1768443706       -6.0295849814        1.8441697485
 H         -0.1109234983       -1.6828517778        1.0701786972
 H          1.9530578069        2.5905194413       -0.8710902645
 H          1.4179361342        4.9997635575       -0.9995533905
 H         -2.0531265789        1.8267325015        0.4606722874
 H         -5.2390984000        5.4854058982        0.9277213359
 H         -5.7858595981        7.9007799420        0.7738663506
 H         -4.0510065785        9.5031915804        0.0490198946
 H         -1.7789098197        8.6822166145       -0.5161193945
 H          1.8642794345        1.7853071529        1.6917482838
 H          4.1062343192        0.9693705306        2.3401489631
 H          1.5488134829       -1.4615515650       -1.0946463974
 H          5.1489023620       -4.7185335506       -1.5110229896
 H          7.3862260115       -5.5563701337       -0.8410824575
 H          8.6856008559       -4.3379559928        0.8705197232
 H          7.7402870583       -2.2898766276        1.9038041360
 H         -1.5729669970        0.8964353475       -2.0306324965
 H         -3.2957873421       -0.7893743209       -2.5781081277
  70
  -127.963737930000       0.195666696457673      !
 O         -6.1244762636       -3.5320877925       -0.6715020386
 C         -5.0591370616       -3.8231912629       -0.1586983856
 C         -4.8413567054       -5.1256538682        0.5098556226
 C         -5.8946596832       -6.0349296988        0.5581286926
 C         -5.7399514061       -7.2621850179        1.1765527753
 C         -4.5250505893       -7.5975521695        1.7562270875
 C         -3.4707172761       -6.7040759754        1.7142137979
 C         -3.6140659359       -5.4645625776        1.0947978707
 C         -2.4585535352       -4.5444417366        1.0763499808
 O         -1.3846207208       -4.8396812554        1.5645371118
 C         -2.6826399719       -3.2333901104        0.4215362483
 C         -1.6354077209       -2.3241778536        0.3996036066
 C         -1.7843180332       -1.0732766490       -0.1970122780
 N         -0.7251734843       -0.1656285398       -0.2105737879
 C         -0.9682570525        1.2048702723       -0.0851871710
 C         -1.9940811813        1.6797713312        0.7378586495
 C         -2.1994847091        3.0352587630        0.8737913798
 C         -1.3919220737        3.9588531798        0.2101438447
 C         -0.3692551635        3.4867994204       -0.6229264848
 C         -0.1740652747        2.1222724598       -0.7707211618
 C          0.5290869622        4.4057699218       -1.3614895288
 O          1.3772696571        3.9923506013       -2.1286011910
 C          0.3362379936        5.8462039076       -1.0974790707
 C          1.1976272447        6.7575464626       -1.7039113233
 C          1.0573065525        8.1150833560       -1.4825832857
 C          0.0474514687        8.5801766033       -0.6529816675
 C         -0.8171886690        7.6856643386       -0.0489348590
 C         -0.6841739364        6.3158798205       -0.2598704893
 C         -1.6344197854        5.3996188614        0.4103118670
 O         -2.5566635695        5.8111481007        1.0905410490
 C          0.5921667264       -0.6161885220       -0.3396570067
 C          0.8996563025       -1.7183630573       -1.1427304587
 C          2.2081590746       -2.1262742267       -1.2841047685
 C          3.2489233750       -1.4503428393       -0.6475167244
 C          2.9433744238       -0.3521464061        0.1666841889
 C          1.6245105083        0.0458481009        0.3217322203
 C          3.9928962858        0.4170662077        0.8760241136
 O          3.7183319015        1.3398206881        1.6191442634
 C          5.3856232496        0.0007068622        0.6141068129
 C          6.4206736959        0.7253125946        1.2005253845
 C          7.7397569820        0.3736432119        0.9817229263
 C          8.0410509654       -0.7138813797        0.1749609529
 C          7.0221104194       -1.4432039863       -0.4102487752
 C          5.6897317982       -1.0966345149       -0.2023007452
 C          4.6361891688       -1.9052582903       -0.8568629289
 O          4.9008896586       -2.8812813940       -1.5342950112
 C         -3.0122852713       -0.7436648894       -0.7811277434
 C         -4.0532814781       -1.6447580936       -0.7588870493
 C         -3.9120739210       -2.8971196522       -0.1604131264
 H         -6.8316976565       -5.7533067963        0.1008304945
 H         -6.5650952621       -7.9578814985        1.2076227801
 H         -4.4015194231       -8.5550278015        2.2396876719
 H         -2.5160062525       -6.9444086696        2.1582879066
 H         -0.7042390944       -2.6055126711        0.8696792222
 H         -2.6129502816        0.9798782577        1.2792519355
 H         -2.9824799208        3.4121771124        1.5146766124
 H          0.6120649523        1.7889660025       -1.4324523409
 H          1.9755790099        6.3730693798       -2.3469012298
 H          1.7336421584        8.8113619857       -1.9555109367
 H         -0.0644018700        9.6397549310       -0.4779967106
 H         -1.6116435741        8.0264179129        0.5984945548
 H          0.1100607913       -2.2389414551       -1.6635957506
 H          2.4569707913       -2.9711737644       -1.9085686588
 H          1.4195233599        0.8851968097        0.9701634620
 H          6.1624227459        1.5671139963        1.8258925016
 H          8.5334022801        0.9455212361        1.4388380161
 H          9.0702081076       -0.9915993922        0.0030008615
 H          7.2345509472       -2.2936851018       -1.0410755537
 H         -3.1352187290        0.2171527767       -1.2582259940
 H         -5.0022075109       -1.4026139740       -1.2135657817
  70
  -127.963732400000       0.194525034322381      !
 O         -5.5934172798       -2.9145442190       -1.4960957007
 C         -4.6694227204       -3.1930210434       -0.7538752288
 C         -4.7274621751       -4.3477580806        0.1704912450
 C         -5.8911222698       -5.1111424022        0.2115252414
 C         -5.9936177116       -6.1966407768        1.0623044811
 C         -4.9289899475       -6.5351255292        1.8848441155
 C         -3.7668024394       -5.7868323651        1.8519057224
 C         -3.6517674496       -4.6902898877        1.0004331442
 C         -2.3896054726       -3.9228448744        1.0006132628
 O         -1.4384652244       -4.2358822762        1.6907475435
 C         -2.3470985435       -2.7431651949        0.1040218361
 C         -1.1981913436       -1.9659619934        0.0976735062
 C         -1.0987914061       -0.8415170830       -0.7189203411
 N          0.0655948805       -0.0689304105       -0.7173018511
 C         -0.0197451012        1.3186655596       -0.8498943596
 C          0.9579156878        2.0317939142       -1.5513087576
 C          0.8543203725        3.3987093614       -1.6848115389
 C         -0.2184127524        4.0993331708       -1.1331227794
 C         -1.1977986322        3.3892952176       -0.4261942923
 C         -1.0894614048        2.0134843513       -0.2887009615
 C         -2.3637648262        4.0645295702        0.1916930964
 O         -3.2169182506        3.4426009129        0.7955415596
 C         -2.4274180240        5.5304132578        0.0213473480
 C         -3.4957825177        6.2225198227        0.5872073241
 C         -3.5992728530        7.5943859472        0.4498977032
 C         -2.6325142660        8.2938782188       -0.2574921097
 C         -1.5668403470        7.6182374539       -0.8234740410
 C         -1.4503647249        6.2369642377       -0.6923604232
 C         -0.2905303848        5.5607118099       -1.3161865568
 O          0.5531068270        6.1754546915       -1.9427849887
 C          1.3105782607       -0.6853185331       -0.5733679172
 C          1.5558822709       -1.9374872791       -1.1463235320
 C          2.7899509140       -2.5325784885       -1.0059187877
 C          3.8159654662       -1.9083929670       -0.2963380738
 C          3.5729210307       -0.6562240197        0.2833949066
 C          2.3292313881       -0.0585798434        0.1414953792
 C          4.6106080391        0.0626999842        1.0605449369
 O          4.4007804827        1.1570388183        1.5481206079
 C          5.9087108459       -0.6284633414        1.2004967544
 C          6.9163626972       -0.0133845924        1.9401209063
 C          8.1482457323       -0.6215342407        2.0957788447
 C          8.3894337877       -1.8560897028        1.5107507028
 C          7.3972780806       -2.4767949400        0.7739262040
 C          6.1519014804       -1.8759647874        0.6107613744
 C          5.1226689516       -2.5827540295       -0.1846548951
 O          5.3428386540       -3.6566164202       -0.7146324351
 C         -2.1792650292       -0.5012504184       -1.5391588385
 C         -3.3206803186       -1.2719311519       -1.5342697246
 C         -3.4269924537       -2.3991804535       -0.7195875378
 H         -6.7074680099       -4.8300255092       -0.4373485517
 H         -6.9023433276       -6.7793442076        1.0855248119
 H         -5.0063940143       -7.3820593818        2.5500800824
 H         -2.9250576340       -6.0330934738        2.4822167378
 H         -0.3866555053       -2.2476141226        0.7529118979
 H          1.7881484316        1.5044559060       -1.9967582407
 H          1.5997018984        3.9571032014       -2.2309187533
 H         -1.8516781336        1.4951469917        0.2748685529
 H         -4.2369894369        5.6575505008        1.1330028019
 H         -4.4320854803        8.1194551773        0.8931821889
 H         -2.7110048055        9.3652002734       -0.3670259563
 H         -0.8025158307        8.1431328827       -1.3771485300
 H          0.7763459950       -2.4303773016       -1.7077443001
 H          2.9918209497       -3.4950764876       -1.4517500779
 H          2.1668951433        0.9010616727        0.6105195185
 H          6.7070626786        0.9480335673        2.3854825653
 H          8.9209987797       -0.1349117614        2.6718574475
 H          9.3507090020       -2.3331288212        1.6299018374
 H          7.5635069309       -3.4378012992        0.3099479761
 H         -2.1103661167        0.3630337741       -2.1826302966
 H         -4.1572197876       -1.0224541906       -2.1695698210
  70
  -127.963590720000       0.167441798761851      !
 O         -5.6212171583       -2.9156280434       -1.2991611696
 C         -4.6417017087       -3.2103400043       -0.6390975225
 C         -4.6093521127       -4.4172896487        0.2181352973
 C         -5.7379633833       -5.2310814302        0.2670106371
 C         -5.7540777680       -6.3698782392        1.0515666186
 C         -4.6378257625       -6.7108013063        1.8012381052
 C         -3.5110612237       -5.9106080488        1.7628453416
 C         -3.4822128706       -4.7615010994        0.9759094672
 C         -2.2538049448       -3.9416883593        0.9654837650
 O         -1.2670294143       -4.2402435491        1.6109290203
 C         -2.2887642165       -2.7317666498        0.1102622535
 C         -1.1603590371       -1.9271198165        0.0702832836
 C         -1.1230997741       -0.7804579551       -0.7210015370
 N          0.0314335897        0.0042564423       -0.7579805479
 C         -0.0531024683        1.3916167281       -0.8752974739
 C          0.9296437589        2.1075868374       -1.5674501936
 C          0.8325348316        3.4758168043       -1.6893973360
 C         -0.2393852554        4.1764300759       -1.1360953014
 C         -1.2230353828        3.4642071540       -0.4373717641
 C         -1.1201103666        2.0870465367       -0.3092368752
 C         -2.3891451319        4.1389106113        0.1806714392
 O         -3.2486837763        3.5151216238        0.7733334959
 C         -2.4464144833        5.6064667488        0.0224779618
 C         -3.5137304473        6.2981421391        0.5908733070
 C         -3.6108677098        7.6715849352        0.4654175265
 C         -2.6390615137        8.3730315152       -0.2331799950
 C         -1.5746483705        7.6977571429       -0.8019931219
 C         -1.4643701583        6.3150085583       -0.6822247137
 C         -0.3050084290        5.6392007278       -1.3075877021
 O          0.5426591709        6.2559305247       -1.9268950526
 C          1.2817575386       -0.6149847721       -0.6497584337
 C          1.5244134766       -1.8341812533       -1.2898970123
 C          2.7522449477       -2.4460263187       -1.1689315323
 C          3.7700393989       -1.8733872518       -0.4063369151
 C          3.5319201009       -0.6502115791        0.2335517596
 C          2.2972059255       -0.0307395199        0.1030404858
 C          4.5636201845        0.0106909880        1.0683640378
 O          4.3752588831        1.1005348359        1.5738887588
 C          5.8231449714       -0.7390651597        1.2526920265
 C          6.7984421712       -0.2104864892        2.0951708118
 C          7.9910714270       -0.8794060698        2.2999542672
 C          8.2262068012       -2.0872066556        1.6592989446
 C          7.2676468139       -2.6201523930        0.8169146606
 C          6.0605452492       -1.9591786312        0.6061528385
 C          5.0632841458       -2.5749946759       -0.2974265421
 O          5.2932600822       -3.6029045363       -0.9072942761
 C         -2.2508398872       -0.4427153758       -1.4760798108
 C         -3.3759548013       -1.2363114799       -1.4307660870
 C         -3.4172790334       -2.3888079872       -0.6457780391
 H         -6.5956420314       -4.9481458716       -0.3251998999
 H         -6.6351965612       -6.9933139335        1.0784233762
 H         -4.6472096188       -7.5999175640        2.4137358608
 H         -2.6303377231       -6.1566364912        2.3375815202
 H         -0.3118667952       -2.2087974020        0.6768089042
 H          1.7589068178        1.5808597538       -2.0153212418
 H          1.5819698539        4.0355562035       -2.2285683310
 H         -1.8848084357        1.5688077911        0.2509121939
 H         -4.2592805987        5.7315415705        1.1289897034
 H         -4.4433377159        8.1962317760        0.9098679137
 H         -2.7128091905        9.4455460777       -0.3339019838
 H         -0.8066146692        8.2241753859       -1.3492224690
 H          0.7453446109       -2.2892858748       -1.8830471939
 H          2.9537582952       -3.3831227314       -1.6657404578
 H          2.1367611925        0.9066096104        0.6158144343
 H          6.5956606709        0.7325625640        2.5808992308
 H          8.7384827263       -0.4603395318        2.9569974481
 H          9.1568674244       -2.6115236357        1.8167936310
 H          7.4301760804       -3.5584325499        0.3073237152
 H         -2.2323406435        0.4365273179       -2.1023742668
 H         -4.2495856163       -0.9866951315       -2.0139819606
