  70
       -127.96385756
 O         -3.5733048309       -5.1403688766       -1.7023555876
 C         -3.7551294888       -4.1973274155       -0.9541329543
 C         -5.0652623194       -3.9471667312       -0.3123210496
 C         -6.1264731196       -4.7982416138       -0.6090768437
 C         -7.3689836478       -4.6044101194       -0.0336791613
 C         -7.5662976810       -3.5546998183        0.8515421938
 C         -6.5197772047       -2.7046285151        1.1576335607
 C         -5.2643319266       -2.8874217647        0.5823812869
 C         -4.1777042325       -1.9538486824        0.9422650312
 O         -4.3314033971       -1.0567659863        1.7486792677
 C         -2.8807501233       -2.1741822991        0.2591411903
 C         -1.8405752074       -1.2979657905        0.5299109052
 C         -0.5964071037       -1.4528391482       -0.0780205827
 N          0.4370680491       -0.5540605409        0.1986355312
 C          0.1372851854        0.7980482546        0.3938604873
 C          0.8365568708        1.5570916008        1.3368323674
 C          0.5234232650        2.8855237559        1.5232132522
 C         -0.4894762248        3.4987815030        0.7861084207
 C         -1.1910527988        2.7416768510       -0.1610122837
 C         -0.8719291020        1.4052339874       -0.3497898239
 C         -2.2731842918        3.3263784475       -0.9881647581
 O         -2.8684000105        2.6689718156       -1.8206000034
 C         -2.5805985097        4.7495505464       -0.7383327869
 C         -3.5956669788        5.3531842313       -1.4770928271
 C         -3.9164070075        6.6834479135       -1.2794271928
 C         -3.2227939066        7.4300314184       -0.3382411861
 C         -2.2127856894        6.8423198798        0.4013012338
 C         -1.8807220319        5.5033571918        0.2130039868
 C         -0.7912234184        4.9220408848        1.0293781314
 O         -0.1828081750        5.5793943103        1.8537153239
 C          1.7564664276       -0.9982429795        0.2766427148
 C          2.0551138240       -2.2652010450        0.7901122650
 C          3.3624369653       -2.6913461396        0.8642237827
 C          4.4130449699       -1.8788489132        0.4367691442
 C          4.1189355179       -0.6083577710       -0.0758166442
 C          2.8015851062       -0.1821999754       -0.1538605436
 C          5.1811520579        0.3107892381       -0.5494135373
 O          4.9220234127        1.4151581208       -0.9876783982
 C          6.5656042417       -0.1942660550       -0.4495293679
 C          7.6072709872        0.6230225264       -0.8825527178
 C          8.9191407227        0.1930064830       -0.8070632686
 C          9.2069136557       -1.0641476604       -0.2960816511
 C          8.1815220863       -1.8851748003        0.1363913359
 C          6.8562242675       -1.4643305476        0.0659329885
 C          5.7948584710       -2.3816582171        0.5383713188
 O          6.0487409770       -3.4872618694        0.9809946962
 C         -0.4037059984       -2.5136930044       -0.9684452138
 C         -1.4343966055       -3.3877560240       -1.2348375063
 C         -2.6836499482       -3.2363508463       -0.6328223028
 H         -5.9503632712       -5.6099304974       -1.2993680216
 H         -8.1841155164       -5.2704296649       -0.2739170170
 H         -8.5353466480       -3.4010043647        1.3022320204
 H         -6.6500462917       -1.8823224366        1.8456968867
 H         -2.0175071414       -0.4963759063        1.2322016693
 H          1.6145073138        1.0945478238        1.9256187724
 H          1.0514769263        3.4790326766        2.2543607553
 H         -1.4206278693        0.8497227986       -1.0964361452
 H         -4.1221059686        4.7531647738       -2.2046202222
 H         -4.7059085265        7.1396165760       -1.8577375985
 H         -3.4703681180        8.4693546789       -0.1822287090
 H         -1.6596213847        7.4049937292        1.1387679753
 H          1.2558924715       -2.9019141462        1.1389196701
 H          3.6031820757       -3.6641119842        1.2662601735
 H          2.6050732502        0.7960917801       -0.5680214545
 H          7.3600673844        1.5979477489       -1.2760801827
 H          9.7177367084        0.8361072056       -1.1453232315
 H         10.2304068118       -1.4029271381       -0.2360277995
 H          8.3829417313       -2.8676226322        0.5371132533
 H          0.5526308091       -2.6361892173       -1.4545610127
 H         -1.2991084693       -4.2052844276       -1.9270133482
