  43
        -65.04331579
 C         -2.3798042703        3.6124293558       -0.2934614334
 C         -0.9977081290        3.6531832446       -0.4071284391
 C         -0.2670228761        2.4791008380       -0.3621252337
 C         -0.8942596888        1.2521042305       -0.2091431328
 C         -2.2902505861        1.2154941598       -0.1028432001
 C         -3.0240087859        2.4018573462       -0.1438348525
 N         -2.9389176800        0.0114625865        0.0363143253
 C         -2.3017735714       -1.2041736004       -0.0423033874
 C         -3.0473619527       -2.3837949748       -0.0293437881
 C         -2.4149779314       -3.6065123325       -0.1187338764
 C         -1.0330505393       -3.6663663911       -0.2247650318
 C         -0.2906793393       -2.4986824778       -0.2328804202
 C         -0.9059529441       -1.2596051277       -0.1419742424
 C         -0.0690977202       -0.0054759220       -0.0951326909
 C          0.7174445723        0.0317733029        1.2070335950
 C          0.2474086757        0.0780972016        2.4805146668
 C          1.1649154042        0.1135708218        3.5470140680
 C          2.5533717446        0.1012586671        3.2946299969
 C          3.0514022914        0.0546200208        2.0271705705
 C          2.1402575644        0.0189200617        0.9237334436
 C          2.3369746420       -0.0242018588       -0.4453395661
 C          3.5228184316       -0.0542231325       -1.2466723121
 C          3.4018194317       -0.0954864140       -2.6042968542
 C          2.1423450670       -0.1093518952       -3.2370381794
 C          0.9599948784       -0.0804279881       -2.4712285030
 C          1.0512102261       -0.0396053945       -1.1170224940
 H         -2.9545426447        4.5257095987       -0.3227298248
 H         -0.4917693798        4.5987579730       -0.5260605636
 H          0.8091245435        2.5069932708       -0.4425027104
 H         -4.1009776538        2.3599806555       -0.0585519434
 H         -3.9471125002        0.0176105851        0.0917786189
 H         -4.1242180359       -2.3272956935        0.0487822718
 H         -2.9990155394       -4.5142967395       -0.1081685487
 H         -0.5363429878       -4.6215260333       -0.2973583511
 H          0.7853603954       -2.5411287118       -0.3082008812
 H         -0.8144467111        0.0884030585        2.6849739326
 H          0.8063360970        0.1512670677        4.5630507168
 H          3.2287543473        0.1306757715        4.1383070238
 H          4.1140118909        0.0461848577        1.8384821728
 H          4.4892192753       -0.0436350935       -0.7664725368
 H          4.2881510075       -0.1184759377       -3.2229819542
 H          2.0841149215       -0.1424686234       -4.3130833400
 H         -0.0015407613       -0.0913651813       -2.9656345893
