  43
  -65.0433157900000       0.504116284934050      !
 C         -2.3798042703        3.6124293558       -0.2934614334
 C         -0.9977081290        3.6531832446       -0.4071284391
 C         -0.2670228761        2.4791008380       -0.3621252337
 C         -0.8942596888        1.2521042305       -0.2091431328
 C         -2.2902505861        1.2154941598       -0.1028432001
 C         -3.0240087859        2.4018573462       -0.1438348525
 N         -2.9389176800        0.0114625865        0.0363143253
 C         -2.3017735714       -1.2041736004       -0.0423033874
 C         -3.0473619527       -2.3837949748       -0.0293437881
 C         -2.4149779314       -3.6065123325       -0.1187338764
 C         -1.0330505393       -3.6663663911       -0.2247650318
 C         -0.2906793393       -2.4986824778       -0.2328804202
 C         -0.9059529441       -1.2596051277       -0.1419742424
 C         -0.0690977202       -0.0054759220       -0.0951326909
 C          0.7174445723        0.0317733029        1.2070335950
 C          0.2474086757        0.0780972016        2.4805146668
 C          1.1649154042        0.1135708218        3.5470140680
 C          2.5533717446        0.1012586671        3.2946299969
 C          3.0514022914        0.0546200208        2.0271705705
 C          2.1402575644        0.0189200617        0.9237334436
 C          2.3369746420       -0.0242018588       -0.4453395661
 C          3.5228184316       -0.0542231325       -1.2466723121
 C          3.4018194317       -0.0954864140       -2.6042968542
 C          2.1423450670       -0.1093518952       -3.2370381794
 C          0.9599948784       -0.0804279881       -2.4712285030
 C          1.0512102261       -0.0396053945       -1.1170224940
 H         -2.9545426447        4.5257095987       -0.3227298248
 H         -0.4917693798        4.5987579730       -0.5260605636
 H          0.8091245435        2.5069932708       -0.4425027104
 H         -4.1009776538        2.3599806555       -0.0585519434
 H         -3.9471125002        0.0176105851        0.0917786189
 H         -4.1242180359       -2.3272956935        0.0487822718
 H         -2.9990155394       -4.5142967395       -0.1081685487
 H         -0.5363429878       -4.6215260333       -0.2973583511
 H          0.7853603954       -2.5411287118       -0.3082008812
 H         -0.8144467111        0.0884030585        2.6849739326
 H          0.8063360970        0.1512670677        4.5630507168
 H          3.2287543473        0.1306757715        4.1383070238
 H          4.1140118909        0.0461848577        1.8384821728
 H          4.4892192753       -0.0436350935       -0.7664725368
 H          4.2881510075       -0.1184759377       -3.2229819542
 H          2.0841149215       -0.1424686234       -4.3130833400
 H         -0.0015407613       -0.0913651813       -2.9656345893
  43
  -65.0433002300000       0.495883715065950      !
 C         -2.3827474195        3.6144253949       -0.3862339925
 C         -1.0338105701        3.6727097097       -0.0673209277
 C         -0.3101949129        2.5031764099        0.0849487282
 C         -0.9118827830        1.2640049182       -0.0729625457
 C         -2.2746105165        1.2104252449       -0.3902677900
 C         -3.0012365726        2.3919217598       -0.5460026801
 N         -2.8991368878       -0.0039676332       -0.5465693524
 C         -2.2779843787       -1.2097770313       -0.3246477535
 C         -3.0069826029       -2.3963415248       -0.4180042423
 C         -2.3913880054       -3.6098156222       -0.1921067704
 C         -1.0432652012       -3.6538283033        0.1322658320
 C         -0.3173778229       -2.4794803584        0.2229972394
 C         -0.9158738883       -1.2492537886       -0.0027986262
 C         -0.0853738762        0.0089690612        0.0554556140
 C          0.7846823458        0.0398876050        1.2985886390
 C          0.3995880953        0.0847333980        2.5997912984
 C          1.3858645935        0.1025889376        3.6060547789
 C          2.7531995519        0.0735556246        3.2643532094
 C          3.1680589135        0.0289926202        1.9662150463
 C          2.1861535174        0.0114248926        0.9243638168
 C          2.2934609121       -0.0295822806       -0.4544646223
 C          3.4238695749       -0.0705499617       -1.3321277690
 C          3.2145518872       -0.1058324948       -2.6781689432
 C          1.9151736805       -0.1022779951       -3.2282423870
 C          0.7865009206       -0.0639026840       -2.3877339849
 C          0.9670256188       -0.0290193818       -1.0422508494
 H         -2.9517523266        4.5234392914       -0.5095650332
 H         -0.5480045501        4.6278636640        0.0592683931
 H          0.7407600856        2.5437301487        0.3285867049
 H         -4.0524749489        2.3365929679       -0.7924241422
 H         -3.8858610204       -0.0083344499       -0.7606667275
 H         -4.0577654353       -2.3521343208       -0.6684514002
 H         -2.9619763708       -4.5229755026       -0.2683253933
 H         -0.5594924790       -4.6017914431        0.3099522168
 H          0.7330701175       -2.5095397169        0.4697653162
 H         -0.6466222125        0.1064288001        2.8721218815
 H          1.0937389594        0.1381487294        4.6432667895
 H          3.4827403782        0.0871662624        4.0621255237
 H          4.2159668325        0.0065487628        1.7092239586
 H          4.4193961060       -0.0739618319       -0.9154769075
 H          4.0578284065       -0.1376899107       -3.3538771334
 H          1.7871749098       -0.1304382641       -4.2984050871
 H         -0.2051438673       -0.0631672040       -2.8192092012
