  66
  -95.9391627897000       0.607075949770219      !
 C          1.1353346552       -3.9190476735        2.4040764477
 C          0.6352761542       -2.7459604338        2.9440936059
 C          0.7106482637       -1.5618813414        2.2323635966
 C          1.3106316867       -1.5422123194        0.9790405907
 P          1.2736034484       -0.1018138374       -0.1255088376
 C          3.0648459676        0.0852108113       -0.5350485011
 C          4.1238945176       -0.5287519041        0.1216123701
 C          5.4251439025       -0.2619365536       -0.2660850272
 C          5.6809589728        0.6169707196       -1.3053740183
 C          4.6293307957        1.2328375536       -1.9645079705
 C          3.3293853536        0.9637877166       -1.5817412040
 C          1.1978068116        1.3407444277        0.9920759952
 C          1.9711011205        1.4126365268        2.1433774560
 C          1.9081172638        2.5250514891        2.9617180721
 C          1.0795062989        3.5825470837        2.6221636001
 C          0.3338233813        3.5332861456        1.4589969868
 C          0.3823032495        2.4180728607        0.6264120191
 C         -0.3944703985        2.4148208501       -0.6253651690
 C         -0.3504569499        3.5279807204       -1.4609627261
 C         -1.0974846000        3.5718017126       -2.6235150436
 C         -1.9233073763        2.5108827211       -2.9593459917
 C         -1.9818431783        1.4004780950       -2.1379535238
 C         -1.2066587453        1.3338478522       -0.9875689443
 P         -1.2770621089       -0.1087215797        0.1304346782
 C         -3.0708750508        0.0700780191        0.5330650791
 C         -4.1242710816       -0.5724212379       -0.1047549040
 C         -5.4277280896       -0.3093488314        0.2783599409
 C         -5.6914494924        0.5944539145        1.2936912713
 C         -4.6454392664        1.2398018110        1.9333260080
 C         -3.3434252665        0.9737504491        1.5562115623
 C         -1.3003052437       -1.5493031019       -0.9747023047
 C         -1.7702050991       -2.7413457129       -0.4290126523
 C         -1.6768542708       -3.9210924149       -1.1416560391
 C         -1.0999062642       -3.9232811928       -2.4015478716
 C         -0.6117847958       -2.7447231837       -2.9405016786
 C         -0.7000787736       -1.5620225217       -2.2280419220
 C          1.7931461059       -2.7288428705        0.4324899294
 C          1.7117985289       -3.9100668658        1.1439816913
 H          1.0684992122       -4.8421378418        2.9612943378
 H          0.1753184548       -2.7546764610        3.9220667936
 H          0.3059576280       -0.6500440465        2.6511561782
 H          3.9345099928       -1.2191477090        0.9320024271
 H          6.2454642159       -0.7426442221        0.2479786578
 H          6.6994049376        0.8200570593       -1.6026299680
 H          4.8253489487        1.9176643960       -2.7771203902
 H          2.4963734818        1.4357856587       -2.0898324259
 H          2.6250469010        0.5883571128        2.3933975662
 H          2.5048153279        2.5693479892        3.8611447301
 H          1.0208707701        4.4513358863        3.2615329788
 H         -0.3096265981        4.3609589545        1.1947975138
 H          0.2900983674        4.3587001562       -1.1992478405
 H         -1.0418877335        4.4389334537       -3.2654044225
 H         -2.5212180324        2.5509673446       -3.8581780621
 H         -2.6333676746        0.5732070322       -2.3846915108
 H         -3.9292479874       -1.2809016725       -0.8979343943
 H         -6.2435372678       -0.8124378351       -0.2211737709
 H         -6.7115499510        0.7942036260        1.5876264463
 H         -4.8476585687        1.9449542142        2.7267682133
 H         -2.5146803817        1.4682570807        2.0498012917
 H         -2.2034155046       -2.7320901157        0.5634187519
 H         -2.0446878348       -4.8417994627       -0.7120799227
 H         -1.0232490129       -4.8452340699       -2.9593720426
 H         -0.1510481113       -2.7479058495       -3.9181787508
 H         -0.3045377105       -0.6458785398       -2.6461876375
 H          2.2274128278       -2.7139140932       -0.5593863624
 H          2.0893120404       -4.8265002248        0.7137213656
  66
  -95.9382066421000       0.220713051507873      !
 C          1.5251188238       -3.8597357149        2.6323602101
 C          0.6864648365       -2.8177986198        2.9913599654
 C          0.6405321160       -1.6657916074        2.2287689377
 C          1.4435021373       -1.5386218311        1.0975123082
 P          1.2420834022       -0.1028619344       -0.0013103890
 C          2.9668816573        0.0912309336       -0.6268934033
 C          3.9397568635        0.9215717491       -0.0855074999
 C          5.1857288629        1.0091017901       -0.6818856346
 C          5.4708750267        0.2780571696       -1.8227703906
 C          4.4986946490       -0.5360661118       -2.3811848480
 C          3.2513741295       -0.6176650422       -1.7924364285
 C          1.1402159639        1.2816068699        1.1798860499
 C          1.8019667724        1.2799402859        2.4019962021
 C          1.6973086769        2.3617935847        3.2574575830
 C          0.9306861487        3.4568658903        2.8932367470
 C          0.2762199529        3.4704036298        1.6752299555
 C          0.3684403030        2.3877201773        0.8049193062
 C         -0.3386229869        2.4336152154       -0.4862889278
 C         -0.2368614794        3.5683244238       -1.2861760870
 C         -0.9350754448        3.6625710836       -2.4757297917
 C         -1.7709072244        2.6316083534       -2.8730033709
 C         -1.8861571646        1.5001438342       -2.0870621404
 C         -1.1585408889        1.3807789883       -0.9101211194
 P         -1.3155265796       -0.1017448469        0.1498302010
 C         -3.1307245000        0.1016485080        0.4468722996
 C         -4.1612234808       -0.4941297964       -0.2689670040
 C         -5.4779249194       -0.2063983386        0.0453217674
 C         -5.7781803384        0.6749033146        1.0703508073
 C         -4.7556012676        1.2719994593        1.7897518798
 C         -3.4411139949        0.9815576172        1.4802062515
 C         -1.3054521011       -1.4898601342       -1.0220460155
 C         -1.8321261504       -2.6956157383       -0.5673903766
 C         -1.7367513840       -3.8365521050       -1.3411868159
 C         -1.1014972053       -3.7859172324       -2.5714940125
 C         -0.5565616996       -2.5939974374       -3.0193233173
 C         -0.6472373802       -1.4506702992       -2.2456546161
 C          2.2773670456       -2.5929196440        0.7383113793
 C          2.3212747107       -3.7423394834        1.5054532181
 H          1.5591316886       -4.7593117054        3.2291775993
 H          0.0630315800       -2.9029109851        3.8699440234
 H         -0.0143761202       -0.8553736143        2.5187384630
 H          3.7281219353        1.5018918037        0.8010008094
 H          5.9391941640        1.6541047847       -0.2523508992
 H          6.4459651107        0.3500494328       -2.2818780463
 H          4.7123000459       -1.0982544224       -3.2792127813
 H          2.4763567378       -1.2354432547       -2.2310891762
 H          2.3981570374        0.4214618551        2.6814834715
 H          2.2125832876        2.3506236784        4.2069598685
 H          0.8422694251        4.3018282939        3.5604542258
 H         -0.3314581093        4.3203254826        1.3976532290
 H          0.4091882389        4.3769564356       -0.9740077957
 H         -0.8353538173        4.5462153166       -3.0890181150
 H         -2.3328453071        2.7106428737       -3.7922623469
 H         -2.5474494278        0.6971031210       -2.3830713149
 H         -3.9388782181       -1.1845751206       -1.0708491145
 H         -6.2755006170       -0.6722279562       -0.5162828963
 H         -6.8084001158        0.8952155806        1.3091083713
 H         -4.9856519034        1.9586079224        2.5919517857
 H         -2.6304572500        1.4386807672        2.0365594367
 H         -2.3144124770       -2.7281805045        0.4014660037
 H         -2.1505414778       -4.7682242968       -0.9830019494
 H         -1.0250219228       -4.6766443930       -3.1777947309
 H         -0.0523604117       -2.5565603181       -3.9748823896
 H         -0.2117359150       -0.5227360871       -2.5932987515
 H          2.8998622995       -2.5114681552       -0.1413678169
 H          2.9773987465       -4.5517455490        1.2197380367
  66
  -95.9379721456000       0.172210998721908      !
 C          1.4388843965       -3.8698100974        2.4295194252
 C          0.6963103327       -2.7721613405        2.8321472083
 C          0.7084199540       -1.6077620172        2.0851673390
 C          1.4815991162       -1.5284366048        0.9328590967
 P          1.4356217533       -0.1160590756       -0.2136456357
 C          3.2400252596        0.2948859998       -0.3170221085
 C          4.2486972935       -0.1761906361        0.5139870653
 C          5.5472050315        0.2729273747        0.3498590807
 C          5.8514334074        1.1931624801       -0.6391726877
 C          4.8515659674        1.6654880306       -1.4737662170
 C          3.5556970660        1.2143226864       -1.3135216473
 C          1.0337194341        1.3094307379        0.8677566969
 C          1.6240669871        1.4565061008        2.1157595329
 C          1.3323432895        2.5531796169        2.9059515411
 C          0.4614210698        3.5256222645        2.4428666804
 C         -0.1027382207        3.4062027146        1.1860851912
 C          0.1731282452        2.3026229414        0.3858537481
 C         -0.4092466960        2.2086290963       -0.9631833493
 C         -0.3011327937        3.2730444968       -1.8502505104
 C         -0.8550879422        3.1920082154       -3.1160123953
 C         -1.5346742368        2.0496545475       -3.5044425744
 C         -1.6581694319        0.9851563823       -2.6280088670
 C         -1.0992171431        1.0560713085       -1.3602617814
 P         -1.1963861421       -0.2917830322       -0.1355312804
 C         -2.7663848385        0.1285833356        0.7110933149
 C         -3.4828961164        1.2996652282        0.4989707424
 C         -4.6007470415        1.5747668873        1.2676591553
 C         -5.0066018120        0.6926199237        2.2544375426
 C         -4.2855326248       -0.4697410548        2.4823312551
 C         -3.1648995131       -0.7429263164        1.7235081093
 C         -1.7037644991       -1.6905337138       -1.1874695675
 C         -2.9992896925       -2.1932923826       -1.2456844571
 C         -3.2805214642       -3.2918613591       -2.0387902235
 C         -2.2771216296       -3.9014015405       -2.7730098206
 C         -0.9833823625       -3.4080959635       -2.7141312781
 C         -0.6976174725       -2.3117237995       -1.9240258145
 C          2.2114420521       -2.6417127472        0.5238734063
 C          2.1960025605       -3.8039515700        1.2710557703
 H          1.4234043725       -4.7777706978        3.0145733638
 H          0.0990413822       -2.8251885555        3.7315209119
 H          0.1207118090       -0.7551769750        2.4009160181
 H          4.0249913132       -0.8969480120        1.2883260810
 H          6.3270189542       -0.0967656771        1.0008216511
 H          6.8673204093        1.5399299469       -0.7605724866
 H          5.0851647207        2.3817705309       -2.2484516326
 H          2.7634974321        1.5739342753       -1.9601796568
 H          2.3185822589        0.7055389505        2.4661440213
 H          1.7873732137        2.6516678505        3.8808016928
 H          0.2285708847        4.3822508768        3.0582882430
 H         -0.7754318706        4.1688850232        0.8192197789
 H          0.2353953090        4.1613788123       -1.5472395838
 H         -0.7563369285        4.0223378607       -3.7999273485
 H         -1.9702624303        1.9867472260       -4.4909526008
 H         -2.1929675034        0.0948718205       -2.9277433305
 H         -3.1726222744        1.9927592396       -0.2703960371
 H         -5.1584310266        2.4841524291        1.0942244349
 H         -5.8802249226        0.9124364089        2.8503645808
 H         -4.5960701143       -1.1562614387        3.2569211479
 H         -2.5862384386       -1.6425071457        1.8960841231
 H         -3.7892527638       -1.7242191177       -0.6766089351
 H         -4.2906771931       -3.6732933959       -2.0832734019
 H         -2.5028154886       -4.7589417116       -3.3897946425
 H         -0.1967282218       -3.8817595175       -3.2834078433
 H          0.3116019904       -1.9244873134       -1.8719901202
 H          2.7934237768       -2.5857610617       -0.3879088527
 H          2.7683504748       -4.6616524398        0.9478990209
