  66
        -96.35076961
 C          1.1353346552       -3.9190476735        2.4040764477
 C          0.6352761542       -2.7459604338        2.9440936059
 C          0.7106482637       -1.5618813414        2.2323635966
 C          1.3106316867       -1.5422123194        0.9790405907
 P          1.2736034484       -0.1018138374       -0.1255088376
 C          3.0648459676        0.0852108113       -0.5350485011
 C          4.1238945176       -0.5287519041        0.1216123701
 C          5.4251439025       -0.2619365536       -0.2660850272
 C          5.6809589728        0.6169707196       -1.3053740183
 C          4.6293307957        1.2328375536       -1.9645079705
 C          3.3293853536        0.9637877166       -1.5817412040
 C          1.1978068116        1.3407444277        0.9920759952
 C          1.9711011205        1.4126365268        2.1433774560
 C          1.9081172638        2.5250514891        2.9617180721
 C          1.0795062989        3.5825470837        2.6221636001
 C          0.3338233813        3.5332861456        1.4589969868
 C          0.3823032495        2.4180728607        0.6264120191
 C         -0.3944703985        2.4148208501       -0.6253651690
 C         -0.3504569499        3.5279807204       -1.4609627261
 C         -1.0974846000        3.5718017126       -2.6235150436
 C         -1.9233073763        2.5108827211       -2.9593459917
 C         -1.9818431783        1.4004780950       -2.1379535238
 C         -1.2066587453        1.3338478522       -0.9875689443
 P         -1.2770621089       -0.1087215797        0.1304346782
 C         -3.0708750508        0.0700780191        0.5330650791
 C         -4.1242710816       -0.5724212379       -0.1047549040
 C         -5.4277280896       -0.3093488314        0.2783599409
 C         -5.6914494924        0.5944539145        1.2936912713
 C         -4.6454392664        1.2398018110        1.9333260080
 C         -3.3434252665        0.9737504491        1.5562115623
 C         -1.3003052437       -1.5493031019       -0.9747023047
 C         -1.7702050991       -2.7413457129       -0.4290126523
 C         -1.6768542708       -3.9210924149       -1.1416560391
 C         -1.0999062642       -3.9232811928       -2.4015478716
 C         -0.6117847958       -2.7447231837       -2.9405016786
 C         -0.7000787736       -1.5620225217       -2.2280419220
 C          1.7931461059       -2.7288428705        0.4324899294
 C          1.7117985289       -3.9100668658        1.1439816913
 H          1.0684992122       -4.8421378418        2.9612943378
 H          0.1753184548       -2.7546764610        3.9220667936
 H          0.3059576280       -0.6500440465        2.6511561782
 H          3.9345099928       -1.2191477090        0.9320024271
 H          6.2454642159       -0.7426442221        0.2479786578
 H          6.6994049376        0.8200570593       -1.6026299680
 H          4.8253489487        1.9176643960       -2.7771203902
 H          2.4963734818        1.4357856587       -2.0898324259
 H          2.6250469010        0.5883571128        2.3933975662
 H          2.5048153279        2.5693479892        3.8611447301
 H          1.0208707701        4.4513358863        3.2615329788
 H         -0.3096265981        4.3609589545        1.1947975138
 H          0.2900983674        4.3587001562       -1.1992478405
 H         -1.0418877335        4.4389334537       -3.2654044225
 H         -2.5212180324        2.5509673446       -3.8581780621
 H         -2.6333676746        0.5732070322       -2.3846915108
 H         -3.9292479874       -1.2809016725       -0.8979343943
 H         -6.2435372678       -0.8124378351       -0.2211737709
 H         -6.7115499510        0.7942036260        1.5876264463
 H         -4.8476585687        1.9449542142        2.7267682133
 H         -2.5146803817        1.4682570807        2.0498012917
 H         -2.2034155046       -2.7320901157        0.5634187519
 H         -2.0446878348       -4.8417994627       -0.7120799227
 H         -1.0232490129       -4.8452340699       -2.9593720426
 H         -0.1510481113       -2.7479058495       -3.9181787508
 H         -0.3045377105       -0.6458785398       -2.6461876375
 H          2.2274128278       -2.7139140932       -0.5593863624
 H          2.0893120404       -4.8265002248        0.7137213656
