  58
  -91.7673147359000       0.204176125109572      !
 N          5.7808126457        3.9760828020       -0.0651552932
 C          5.9904891105        2.8399031993       -0.0506644956
 C          6.3020654905        1.4832320349       -0.0334950510
 C          7.6726872720        1.2410678346       -0.0516673928
 N          8.8185906581        1.0991952974       -0.0698582488
 C          5.3188290790        0.4521524977       -0.0030675252
 C          5.5700526843       -0.9707635687        0.0297472861
 C          6.7508973314       -1.7015244489        0.0502172475
 C          6.6811900172       -3.0867230750        0.0808507534
 C          5.4593714034       -3.7505010265        0.0929888024
 C          4.2707996775       -3.0391948088        0.0754133655
 C          4.3213087729       -1.6539807519        0.0445040405
 C          3.2790125305       -0.6659527556        0.0289252628
 C          1.9119332450       -0.7822531702        0.0378491176
 C          1.1095163100        0.3685367113       -0.0087369837
 C         -0.3304136387        0.2734027374       -0.0140566564
 C         -1.1305364075        1.2573293268       -0.6246216601
 C         -2.4990791812        1.1698210361       -0.6289674372
 C         -3.1499031002        0.0906014744       -0.0133910453
 N         -4.5322610318        0.0059151168       -0.0064145830
 C         -5.1678389215       -1.2428289146       -0.0228572322
 C         -6.3193633308       -1.4543220180        0.7357175276
 C         -6.9480173478       -2.6838050455        0.7108356627
 C         -6.4406863838       -3.7151237961       -0.0637406450
 C         -5.2975155165       -3.5083823486       -0.8195248239
 C         -4.6623883840       -2.2820044213       -0.8046899429
 C         -5.3145549221        1.1683655983        0.0194329236
 C         -6.4954062499        1.2358658595       -0.7204359987
 C         -7.2674868750        2.3805243441       -0.6882229344
 C         -6.8756659584        3.4693048623        0.0746651537
 C         -5.7040597540        3.4053405131        0.8122912921
 C         -4.9263154315        2.2642596131        0.7908150696
 C         -2.3650019188       -0.8988514823        0.5970444946
 C         -0.9966271243       -0.8080997165        0.5921611234
 C          1.7475058369        1.6418230681       -0.0460215829
 C          3.1060675871        1.7815224677       -0.0330364632
 C          3.9188609421        0.6317218962       -0.0036059491
 H          7.7110844661       -1.2107288696        0.0434449484
 H          7.5960352547       -3.6603627007        0.0968020261
 H          5.4391353195       -4.8300799447        0.1181208412
 H          3.3209812422       -3.5546123037        0.0855988479
 H          1.4567637651       -1.7615817609        0.0347721682
 H         -0.6605494557        2.0772522017       -1.1446097126
 H         -3.0871151756        1.9225020452       -1.1332598098
 H         -6.7072701778       -0.6535632379        1.3478898598
 H         -7.8349333474       -2.8399825707        1.3059818714
 H         -6.9336555516       -4.6747570946       -0.0784762101
 H         -4.9014857873       -4.3051259267       -1.4309269172
 H         -3.7809925064       -2.1145756855       -1.4060777046
 H         -6.7935448583        0.3916947336       -1.3245630976
 H         -8.1767851565        2.4253689363       -1.2683140720
 H         -7.4808269582        4.3622860538        0.0953793798
 H         -5.3974938045        4.2464832211        1.4154134652
 H         -4.0221328961        2.2074488885        1.3787375371
 H         -2.8507452638       -1.7218206562        1.1005775394
 H         -0.4232916610       -1.5611700221        1.1100043075
 H          1.1322781074        2.5286101857       -0.0393153544
 H          3.5498477293        2.7641355589       -0.0417411011
  58
  -91.7672748278000       0.195733185662788      !
 N          5.7396760238        3.9822411122        0.2068983940
 C          5.9593852862        2.8535673189        0.0995763418
 C          6.2823057155        1.5059054791       -0.0291493939
 C          7.6482732326        1.2846416555       -0.1789514231
 N          8.7904646651        1.1595973265       -0.2946138060
 C          5.3118829647        0.4625629357       -0.0071474808
 C          5.5785656243       -0.9577300114       -0.0311811135
 C          6.7667326143       -1.6742137463       -0.0892719815
 C          6.7129222238       -3.0603622550       -0.1010598935
 C          5.4998802399       -3.7383190947       -0.0557317567
 C          4.3041562857       -3.0409640736        0.0032162826
 C          4.3386962745       -1.6551670991        0.0156065783
 C          3.2854998189       -0.6785565137        0.0549684867
 C          1.9206879355       -0.8102304158        0.0939613153
 C          1.1037249587        0.3320744853        0.1203866223
 C         -0.3350924917        0.2267438297        0.1351962359
 C         -1.1448284994        1.2543414081        0.6565711903
 C         -2.5133746210        1.1759489023        0.6288561345
 C         -3.1557666640        0.0557372326        0.0824811432
 N         -4.5393272105       -0.0071607622        0.0238625169
 C         -5.2008542801       -1.2329076015        0.1625002812
 C         -4.7365000311       -2.1834230364        1.0726162829
 C         -5.3963863235       -3.3885821829        1.2116094229
 C         -6.5242021644       -3.6619646568        0.4539607893
 C         -6.9893045557       -2.7197860821       -0.4499162300
 C         -6.3353160092       -1.5128263616       -0.6000736672
 C         -5.2834578904        1.1591148074       -0.1966776628
 C         -4.8132972216        2.1367917642       -1.0746346413
 C         -5.5513241240        3.2831912327       -1.2937687310
 C         -6.7642892334        3.4694789000       -0.6497052740
 C         -7.2363730877        2.4990274464        0.2199685626
 C         -6.5045001865        1.3505264036        0.4502620633
 C         -2.3637286244       -0.9898580205       -0.4129762183
 C         -0.9953042892       -0.9013175478       -0.3888708141
 C          1.7294943166        1.6124470443        0.1017712928
 C          3.0854888394        1.7667110956        0.0547294349
 C          3.9108893956        0.6260215764        0.0387987438
 H          7.7201949334       -1.1715110710       -0.1248062178
 H          7.6335100442       -3.6234389141       -0.1449135011
 H          5.4919709361       -4.8183636360       -0.0659105783
 H          3.3614626733       -3.5679680937        0.0387593973
 H          1.4806142091       -1.7952691534        0.1372715287
 H         -0.6847959561        2.1096571199        1.1256201723
 H         -3.1102136348        1.9718397759        1.0497914928
 H         -3.8681467437       -1.9621659510        1.6754301999
 H         -5.0341902316       -4.1142746798        1.9240959870
 H         -7.0393574348       -4.6030026284        0.5690112002
 H         -7.8641508151       -2.9285490214       -1.0469318934
 H         -6.6894441448       -0.7841105318       -1.3141916084
 H         -3.8767732949        1.9826981613       -1.5899339762
 H         -5.1812140234        4.0309928430       -1.9786277226
 H         -7.3384135196        4.3660268876       -0.8247502379
 H         -8.1769388892        2.6416195902        0.7302479563
 H         -6.8652244125        0.6007773704        1.1388859078
 H         -2.8433045057       -1.8523684684       -0.8522246554
 H         -0.4173271148       -1.6990946899       -0.8283749120
 H          1.1069826513        2.4934924511        0.0790351116
 H          3.5175396563        2.7540740206        0.0230021062
  58
  -91.7671691999000       0.175033526450110      !
 N          5.8112271566        1.4782126137        3.6538304754
 C          6.0117728472        1.0875650898        2.5854772697
 C          6.3126964151        0.6202988148        1.3095576396
 C          7.6800214818        0.5816068677        1.0525714580
 N          8.8237709479        0.5720051567        0.8934446193
 C          5.3212553481        0.2221049287        0.3663340537
 C          5.5610872725       -0.3271771784       -0.9486078130
 C          6.7357294707       -0.6049444135       -1.6355587813
 C          6.6545020239       -1.1437443056       -2.9112812417
 C          5.4274918781       -1.4077050473       -3.5093643285
 C          4.2449118552       -1.1374604463       -2.8403892422
 C          4.3070095423       -0.5993558764       -1.5643269920
 C          3.2729810398       -0.2134798517       -0.6453964071
 C          1.9051134671       -0.2623097311       -0.7398173014
 C          1.1112962510        0.1633589871        0.3365799267
 C         -0.3302168700        0.1102263183        0.2654185794
 C         -1.0063021275        0.2055473436       -0.9647960626
 C         -2.3753854759        0.1669836111       -1.0378090831
 C         -3.1485704489        0.0066499523        0.1212459747
 N         -4.5317725800       -0.0396627085        0.0496137525
 C         -5.2649693174       -0.8186148106        0.9544497690
 C         -6.4809293534       -0.3542848615        1.4563789404
 C         -7.2051775484       -1.1286977522        2.3413051980
 C         -6.7302355657       -2.3682497026        2.7394286715
 C         -5.5229608188       -2.8332514758        2.2423449735
 C         -4.7924164766       -2.0692168508        1.3536935195
 C         -5.2152787705        0.6948361249       -0.9286345672
 C         -6.3356453906        0.1533208430       -1.5588523097
 C         -7.0108352055        0.8836184746       -2.5170661511
 C         -6.5808192665        2.1551911588       -2.8615352895
 C         -5.4686434583        2.6968419771       -2.2368730637
 C         -4.7881715411        1.9772084728       -1.2745486668
 C         -2.4877316590       -0.1032557853        1.3531643342
 C         -1.1189334763       -0.0405648287        1.4206354229
 C          1.7589605606        0.6600701455        1.5039549912
 C          3.1186014116        0.7380400464        1.6107491948
 C          3.9228310309        0.2908651987        0.5447896745
 H          7.6997342357       -0.4081115315       -1.1947174147
 H          7.5644371579       -1.3626588430       -3.4501762110
 H          5.3983081296       -1.8273152851       -4.5041850684
 H          3.2910302649       -1.3425850017       -3.3046028384
 H          1.4442223041       -0.6730363143       -1.6257536817
 H         -0.4407861422        0.3392621186       -1.8737885551
 H         -2.8680260559        0.2428036175       -1.9960267088
 H         -6.8442331040        0.6172369940        1.1556407633
 H         -8.1422742688       -0.7584336900        2.7285650364
 H         -7.2983515402       -2.9691560303        3.4324093790
 H         -5.1516143700       -3.8016256629        2.5412710073
 H         -3.8604021108       -2.4384645141        0.9521971749
 H         -6.6627702318       -0.8424510001       -1.2986683026
 H         -7.8735619564        0.4540739641       -3.0032227426
 H         -7.1103299831        2.7216274486       -3.6117124871
 H         -5.1335846329        3.6902223013       -2.4939396885
 H         -3.9317657696        2.4052851156       -0.7747729990
 H         -3.0683587934       -0.2185149563        2.2565433192
 H         -0.6411200454       -0.1367622132        2.3830318455
 H          1.1510690797        1.0341763593        2.3134210823
 H          3.5694304043        1.1431771572        2.5025294487
  58
  -91.7670240509000       0.150111989508140      !
 N          5.7890878366        3.6500166047        1.5600373973
 C          5.9982775189        2.5963604216        1.1361732286
 C          6.3085407427        1.3378841312        0.6290876624
 C          7.6763428872        1.0814922792        0.6056139493
 N          8.8199064817        0.9215447831        0.6120471314
 C          5.3244321733        0.4112021036        0.1773404718
 C          5.5737972625       -0.8691719333       -0.4449487036
 C          6.7536287988       -1.5339024041       -0.7529233623
 C          6.6819098585       -2.7791463727       -1.3603517753
 C          5.4593284727       -3.3675252872       -1.6644278171
 C          4.2717474525       -2.7195815210       -1.3659817422
 C          4.3243234530       -1.4748415762       -0.7578870721
 C          3.2833551603       -0.5866760177       -0.3207127608
 C          1.9165279470       -0.6891320352       -0.3735118604
 C          1.1127130292        0.3461914152        0.1306552134
 C         -0.3279289765        0.2601450770        0.0913052076
 C         -1.1365012779        1.4122543685        0.0795381709
 C         -2.5052607104        1.3316308927        0.0444428655
 C         -3.1496605690        0.0857502007        0.0346051389
 N         -4.5314170054       -0.0008443690        0.0157123440
 C         -5.1868322531       -1.0811763649        0.6228428393
 C         -4.7295838349       -1.5960752552        1.8361925310
 C         -5.3844722599       -2.6588225359        2.4271670760
 C         -6.5011539199       -3.2168739275        1.8251718166
 C         -6.9622105123       -2.7036027380        0.6231982286
 C         -6.3124606153       -1.6439910629        0.0210577970
 C         -5.3006390028        0.9949164733       -0.6028965292
 C         -4.8841888027        1.5655811110       -1.8058783503
 C         -5.6491223653        2.5455813350       -2.4076192610
 C         -6.8356750279        2.9643869069       -1.8266358975
 C         -7.2560685074        2.3944798382       -0.6353343491
 C         -6.4968794843        1.4168598588       -0.0226023354
 C         -2.3567763748       -1.0715745942        0.0468444136
 C         -0.9885489361       -0.9826544663        0.0671712568
 C          1.7537209537        1.4836798161        0.7017873613
 C          3.1125368888        1.6006167896        0.7761312039
 C          3.9247960250        0.5746569829        0.2561509828
 H          7.7142873126       -1.0994718650       -0.5263139444
 H          7.5958761273       -3.3016308989       -1.6014393441
 H          5.4375396866       -4.3385490571       -2.1369784377
 H          3.3214607408       -3.1768440209       -1.6017134070
 H          1.4643807822       -1.5503346598       -0.8421095962
 H         -0.6757625561        2.3875330119        0.0737550028
 H         -3.0979634026        2.2344316598        0.0440986076
 H         -3.8694532880       -1.1499584554        2.3132594796
 H         -5.0245499022       -3.0488271504        3.3672067353
 H         -7.0095478063       -4.0470128049        2.2905100530
 H         -7.8295681708       -3.1355811524        0.1473937446
 H         -6.6651857599       -1.2495213188       -0.9204447715
 H         -3.9680613234        1.2265049154       -2.2665327104
 H         -5.3214880560        2.9776921651       -3.3410302276
 H         -7.4308049630        3.7291868706       -2.3010424251
 H         -8.1770538212        2.7190801976       -0.1752687727
 H         -6.8162977154        0.9821700162        0.9130487776
 H         -2.8338821249       -2.0402645848        0.0243413475
 H         -0.4113144452       -1.8936399892        0.0897046093
 H          1.1426248103        2.2596465860        1.1361300636
 H          3.5569510205        2.4685641108        1.2365084437
  58
  -91.7670178539000       0.149130830662402      !
 N          5.8150999731        3.3718793144        2.1040341957
 C          6.0086730513        2.4364179126        1.4546759251
 C          6.3025645188        1.3136950087        0.6867142609
 C          7.6639919954        1.1657003802        0.4385847202
 N          8.8032098626        1.0935359221        0.2630723859
 C          5.3098749633        0.4114294067        0.2034074627
 C          5.5457094820       -0.7926601860       -0.5594289285
 C          6.7163985664       -1.3876045725       -1.0118240178
 C          6.6313443207       -2.5636610404       -1.7429038330
 C          5.4044459846       -3.1540846423       -2.0256375442
 C          4.2259282274       -2.5777041834       -1.5806563986
 C          4.2917008326       -1.4013019839       -0.8497981630
 C          3.2624073722       -0.5857210159       -0.2695041806
 C          1.8953355884       -0.7095044572       -0.2634051801
 C          1.1067283555        0.2820085552        0.3379588215
 C         -0.3359580088        0.2026211946        0.3015308469
 C         -1.1273995657        1.3634931966        0.2523654254
 C         -2.4945052053        1.2937306846        0.1596646321
 C         -3.1465006546        0.0527851754        0.1472277270
 N         -4.5285221688       -0.0171420360        0.0436920551
 C         -5.2396715636       -1.0289661407        0.6994478658
 C         -4.8517292631       -1.4503465553        1.9720368076
 C         -5.5614318280       -2.4431202729        2.6184840319
 C         -6.6639117772       -3.0250211468        2.0127621568
 C         -7.0532203896       -2.6080846638        0.7495583031
 C         -6.3487134380       -1.6188260815        0.0920295779
 C         -5.2203384803        0.9210498576       -0.7332498595
 C         -4.6780341722        1.3722353996       -1.9373408633
 C         -5.3644184084        2.2932448510       -2.7037229178
 C         -6.5963836604        2.7724047536       -2.2871787137
 C         -7.1397826367        2.3241554786       -1.0935901405
 C         -6.4602214569        1.4061485430       -0.3169652517
 C         -2.3714319258       -1.1121153330        0.2322953571
 C         -1.0023802188       -1.0352356879        0.2902368151
 C          1.7538984118        1.3822767866        0.9678395237
 C          3.1140038416        1.5070558698        1.0045939043
 C          3.9138625726        0.5349919550        0.3734527563
 H          7.6803907935       -0.9510056229       -0.8045254283
 H          7.5381021748       -3.0289552170       -2.1004790946
 H          5.3721931589       -4.0685741374       -2.5994510130
 H          3.2720559234       -3.0347328915       -1.8019182114
 H          1.4272235924       -1.5391206988       -0.7724110011
 H         -0.6513944285        2.3317548967        0.2514153154
 H         -3.0813070685        2.1991768884        0.1097801577
 H         -4.0027484111       -0.9846315973        2.4503499938
 H         -5.2573338533       -2.7576516987        3.6053792921
 H         -7.2173744107       -3.7981437985        2.5227757253
 H         -7.9073331913       -3.0613086543        0.2695183241
 H         -6.6440478213       -1.3028933132       -0.8976530241
 H         -3.7256003620        0.9860027373       -2.2692438814
 H         -4.9385824414        2.6319046910       -3.6360763814
 H         -7.1304414567        3.4902131945       -2.8901773734
 H         -8.0964734008        2.6975522680       -0.7610011607
 H         -6.8774010767        1.0663303718        0.6194425266
 H         -2.8610208380       -2.0749391555        0.2264721728
 H         -0.4288465136       -1.9471469488        0.3539011066
 H          1.1465046362        2.1170979055        1.4741709176
 H          3.5683231562        2.3424283165        1.5128050108
  58
  -91.7667818022000       0.116167752367602      !
 N          5.8031913336        1.0673611577       -3.7942920923
 C          6.0080591076        0.8335237783       -2.6818042830
 C          6.3108950501        0.5510630964       -1.3531087472
 C          7.6700806618        0.6466032225       -1.0695907971
 N          8.8066643096        0.7441910265       -0.8907590033
 C          5.3262664697        0.1994763181       -0.3842498793
 C          5.5740176087       -0.2267193264        0.9742662484
 C          6.7522091303       -0.3987982825        1.6889800185
 C          6.6796295509       -0.8279105643        3.0062512865
 C          5.4578600224       -1.0875817097        3.6170665271
 C          4.2719735453       -0.9230330510        2.9199011388
 C          4.3253511084       -0.4939654632        1.6028721217
 C          3.2857314948       -0.2209938728        0.6494193990
 C          1.9197514778       -0.3003446618        0.7430973644
 C          1.1164859640        0.0346197843       -0.3596825895
 C         -0.3240082668       -0.0180385124       -0.2802736887
 C         -0.9955774877        0.1037311446        0.9511629904
 C         -2.3641844972        0.0884077410        1.0311507374
 C         -3.1484573271       -0.0622894255       -0.1224738496
 N         -4.5303189706       -0.0601476673       -0.0436937602
 C         -5.3048920312       -0.7735991985       -0.9689682533
 C         -4.9043810143       -2.0366807684       -1.4051480669
 C         -5.6772539255       -2.7307672646       -2.3154499141
 C         -6.8558872023       -2.1830651342       -2.7967951665
 C         -7.2606558928       -0.9317103350       -2.3598868960
 C         -6.4934781744       -0.2269163123       -1.4532721697
 C         -5.1840976913        0.6722359168        0.9580893206
 C         -4.7235848883        1.9364161493        1.3266471652
 C         -5.3756680036        2.6490852301        2.3138570745
 C         -6.4925630107        2.1187064058        2.9399183386
 C         -6.9573083346        0.8662696441        2.5708572561
 C         -6.3105182242        0.1430861228        1.5878176128
 C         -2.4934316023       -0.2074200728       -1.3543643021
 C         -1.1240311399       -0.1796246950       -1.4274186205
 C          1.7589228346        0.4581648729       -1.5593342643
 C          3.1168053159        0.5540477649       -1.6713710144
 C          3.9279287513        0.2075884425       -0.5738600767
 H          7.7120516817       -0.2032356036        1.2378860547
 H          7.5921858771       -0.9639002993        3.5675070753
 H          5.4352865301       -1.4211975729        4.6440506529
 H          3.3224209056       -1.1243472376        3.3948247358
 H          1.4692308178       -0.6575077644        1.6568699271
 H         -0.4273057842        0.2398820940        1.8577280247
 H         -2.8486327646        0.1807059767        1.9920004095
 H         -3.9943227600       -2.4698176756       -1.0171654475
 H         -5.3610351348       -3.7087286230       -2.6451723333
 H         -7.4562781187       -2.7289472956       -3.5078971245
 H         -8.1751020199       -0.4969462834       -2.7343592481
 H         -6.8008239860        0.7542090894       -1.1227036250
 H         -3.8631363011        2.3559474495        0.8266535319
 H         -5.0146548367        3.6283267872        2.5892719762
 H         -6.9996007439        2.6796174443        3.7096207039
 H         -7.8253003254        0.4464737631        3.0561962310
 H         -6.6651520900       -0.8374206431        1.3065928868
 H         -3.0780025874       -0.3198707353       -2.2554194736
 H         -0.6564853588       -0.3045864503       -2.3913069407
 H          1.1487580948        0.7621533948       -2.3955564619
 H          3.5611656933        0.9000654763       -2.5909400226
  58
  -91.7644302213000       9.646590239387085E-003 !
 N          5.8169207515        3.7916163518       -1.1857908876
 C          6.0217921945        2.7118830169       -0.8308075750
 C          6.3278750256        1.4222595013       -0.4035882124
 C          7.6973811772        1.1972598947       -0.2904654583
 N          8.8422062676        1.0659019980       -0.2177790846
 C          5.3402907914        0.4400148859       -0.1142581450
 C          5.5811795763       -0.9178754205        0.3244508600
 C          6.7566407819       -1.6117255803        0.5778046900
 C          6.6776776974       -2.9315310652        0.9978916070
 C          5.4520260943       -3.5650788522        1.1673715415
 C          4.2686938435       -2.8886304717        0.9197104255
 C          4.3288906651       -1.5691732360        0.4998453449
 C          3.2928747295       -0.6260846762        0.1748717678
 C          1.9282762632       -0.7410152728        0.1846088013
 C          1.1109795734        0.3519107562       -0.1685009570
 C         -0.3280222805        0.2601685150       -0.1470297803
 C         -1.1590249330        1.3503566974       -0.4891013746
 C         -2.5260952786        1.2711263937       -0.4458460304
 C         -3.1678898654        0.0822841911       -0.0699284395
 N         -4.5481272370       -0.0002890589       -0.0209411738
 C         -5.1972860643       -1.2098028669       -0.3041083928
 C         -6.3127339235       -1.5987764549        0.4378005748
 C         -6.9565201092       -2.7857101142        0.1475934044
 C         -6.4995218512       -3.5983746242       -0.8778896571
 C         -5.3913777669       -3.2150714694       -1.6168981888
 C         -4.7416526339       -2.0288191550       -1.3375170852
 C         -5.3157386498        1.1228824545        0.3143088554
 C         -6.5318408787        1.3588136705       -0.3273476908
 C         -7.2894816290        2.4629146733        0.0105985991
 C         -6.8480173099        3.3449385603        0.9842759259
 C         -5.6413171286        3.1128037373        1.6251790207
 C         -4.8777059047        2.0093625779        1.2987877012
 C         -2.3640430614       -1.0197559843        0.2571124669
 C         -0.9977078130       -0.9269379430        0.2258395008
 C          1.7710597866        1.5639800587       -0.5429143295
 C          3.1289526294        1.6994724835       -0.5636552710
 C          3.9426555550        0.6093517720       -0.2013756415
 H          7.7195773163       -1.1424324635        0.4539903869
 H          7.5883153462       -3.4769842391        1.1970628648
 H          5.4241990319       -4.5938240261        1.4952877436
 H          3.3162095215       -3.3815512169        1.0518559583
 H          1.4973461775       -1.6860323141        0.4741312299
 H         -0.7268828867        2.2844317663       -0.8062647651
 H         -3.1226785968        2.1263404501       -0.7277286681
 H         -6.6600808976       -0.9704724478        1.2446886662
 H         -7.8140420723       -3.0826238378        0.7321745222
 H         -7.0046698358       -4.5253617280       -1.1002389959
 H         -5.0358514602       -3.8393003147       -2.4226250732
 H         -3.8878888621       -1.7206111579       -1.9229363701
 H         -6.8685624735        0.6787511850       -1.0958232947
 H         -8.2261240144        2.6404771522       -0.4958576075
 H         -7.4417503105        4.2077686380        1.2432497328
 H         -5.2956084610        3.7910260198        2.3905108543
 H         -3.9452319295        1.8192032368        1.8093088790
 H         -2.8335512390       -1.9427280528        0.5647328330
 H         -0.4342370898       -1.7993022737        0.5118267247
 H          1.1834155061        2.4207157151       -0.8278957986
 H          3.5722053621        2.6377689438       -0.8569098543
