  67
       -101.82947491
 C         -6.9417798083        2.5126620557        0.9589402184
 C         -7.0725430726        1.5040220630       -0.1862993745
 C         -6.9725857651        2.2149879707       -1.5392529785
 C         -8.3566735200        0.7134569560       -0.0767636727
 C         -9.6575685847        1.1671528404       -0.1115028241
 C        -10.6911864817        0.2480895881        0.0124734877
 C        -10.4250315445       -1.1037397598        0.1680221147
 C         -9.1208221279       -1.5689987178        0.2032569008
 C         -8.0869580169       -0.6545828293        0.0803123991
 C         -6.6467831940       -0.8428598914        0.0851436931
 C         -5.8797345008       -1.9917537621        0.2131458916
 C         -4.5033280014       -1.8785965335        0.1910080119
 C         -3.8886070018       -0.6329883518        0.0433133680
 C         -2.4335539765       -0.5327992672        0.0331408821
 N         -1.8915979862        0.6803822980       -0.0998501735
 C         -0.5804897596        0.7706152659       -0.0950941429
 C          0.2592863540       -0.3403052922        0.0293380066
 C          1.7160523031       -0.2361118008        0.0288355041
 C          2.3632619425        0.6810921779       -0.7990966810
 C          3.7392227569        0.7735675191       -0.8102371185
 C          4.5039451869       -0.0416405234        0.0216108642
 N          5.8993083336        0.0528896800        0.0129298465
 C          6.7799979666       -1.0046901411       -0.1089283655
 C          6.5207799408       -2.3557794343       -0.2884154772
 C          7.6005447536       -3.2089924900       -0.4143428354
 C          8.9102546182       -2.7364679107       -0.3730259775
 C          9.1741231229       -1.3900600676       -0.2195417618
 C          8.1053473289       -0.5131183990       -0.0906599701
 C          8.0104311285        0.9124143647        0.0567187113
 C          8.9538647945        1.9263946107        0.1560483876
 C          8.5144820676        3.2250072777        0.3184386532
 C          7.1544616669        3.5158401492        0.3980531891
 C          6.1971305338        2.5239968910        0.3017002078
 C          6.6318225018        1.2200038391        0.1125651469
 C          3.8643667482       -0.9528767303        0.8588841213
 C          2.4884499109       -1.0522880026        0.8547611637
 C         -0.4138557997       -1.5597052272        0.1523165174
 N         -1.7244734257       -1.6562907371        0.1608889523
 C         -4.6648898243        0.5234289928       -0.0895304551
 C         -6.0335571681        0.4114714853       -0.0681551075
 H         -7.7321140020        3.2572192570        0.8994371895
 H         -7.0147747991        2.0036482955        1.9176257548
 H         -5.9804895705        3.0177520501        0.9060891109
 H         -7.7612986625        2.9574920166       -1.6352448385
 H         -7.0712420880        1.4961012479       -2.3498407677
 H         -6.0104348951        2.7127084744       -1.6314115757
 H         -9.8773851778        2.2180667082       -0.2319175694
 H        -11.7153784322        0.5904976294       -0.0117764226
 H        -11.2450184193       -1.8004756032        0.2634247571
 H         -8.9150517889       -2.6220434603        0.3248877011
 H         -6.3487540981       -2.9574567950        0.3292511441
 H         -3.8750534227       -2.7499054929        0.2886832395
 H         -0.1769793159        1.7733077944       -0.1753037296
 H          1.7821328846        1.3043042429       -1.4625633697
 H          4.2333128570        1.4643355713       -1.4767952815
 H          5.5100024691       -2.7309823115       -0.3419420505
 H          7.4241640322       -4.2656377368       -0.5513202423
 H          9.7269541810       -3.4357033034       -0.4723382778
 H         10.1884034486       -1.0208920519       -0.2047365632
 H         10.0078871584        1.6977772401        0.1112923145
 H          9.2311652042        4.0289274353        0.3952092112
 H          6.8408265001        4.5391838132        0.5421591357
 H          5.1466133288        2.7586526722        0.3842070211
 H          4.4521959561       -1.5682860200        1.5231277301
 H          2.0030203684       -1.7500410302        1.5209637010
 H          0.1277807740       -2.4951957667        0.2286541983
 H         -4.1676852863        1.4736786799       -0.2032818613
  67
       -101.82937980
 C         -6.9000802455       -1.5454538973       -2.3127302675
 C         -7.0309272309       -1.4333264662       -0.7909937428
 C         -6.8890385565       -2.8119903698       -0.1386922188
 C         -8.3338897377       -0.7744677346       -0.3985344346
 C         -9.6236162404       -1.1948778876       -0.6419088808
 C        -10.6793493749       -0.4179576494       -0.1833308799
 C        -10.4459703360        0.7607377034        0.5085278071
 C         -9.1531329364        1.1904239869        0.7590369303
 C         -8.0973178292        0.4177909529        0.3026364841
 C         -6.6618619212        0.6121461072        0.4102562658
 C         -5.9226219301        1.6244391007        1.0047687703
 C         -4.5438172802        1.5591164525        0.9541450200
 C         -3.8996474309        0.4982194279        0.3134488387
 C         -2.4426625611        0.4504737994        0.2619415567
 N         -1.7577140486        1.3746889574        0.9386916495
 C         -0.4451995087        1.3251320703        0.8884896499
 C          0.2522956937        0.3519858644        0.1668297347
 C          1.7109137614        0.2896632078        0.1201723406
 C          2.3710153714       -0.0325657136       -1.0651199149
 C          3.7480860327       -0.0953592996       -1.1109280765
 C          4.5001699011        0.1417413690        0.0378073130
 N          5.8953167406        0.0575133055       -0.0029445688
 C          6.6251195030       -0.9801739579       -0.5513082317
 C          6.1865536634       -2.1665092161       -1.1218847111
 C          7.1411588734       -3.0571562108       -1.5746127043
 C          8.5026214709       -2.7869681897       -1.4570732236
 C          8.9455877631       -1.6214719479       -0.8645486577
 C          8.0047787915       -0.7108363327       -0.4022311232
 C          8.1038540711        0.5560541857        0.2669070425
 C          9.1765024910        1.3408747406        0.6687576589
 C          8.9180501466        2.5494539935        1.2836985922
 C          7.6101862917        2.9855314847        1.4830015074
 C          6.5267870810        2.2223809150        1.0912087574
 C          6.7796747010        0.9939124851        0.4978151006
 C          3.8468333955        0.4599282692        1.2265953744
 C          2.4703710448        0.5429506338        1.2618334734
 C         -0.5632376537       -0.5636921247       -0.5043246498
 N         -1.8760265916       -0.5177223241       -0.4621533887
 C         -4.6477337588       -0.5221183276       -0.2835810913
 C         -6.0186710303       -0.4603312987       -0.2290890651
 H         -7.6684793030       -2.2036260363       -2.7113186929
 H         -7.0090199942       -0.5653338999       -2.7720456889
 H         -5.9245193440       -1.9463752082       -2.5764716747
 H         -7.6607965343       -3.4847743613       -0.5052127685
 H         -6.9854181077       -2.7281914535        0.9417332647
 H         -5.9155348314       -3.2378790551       -0.3687262765
 H         -9.8179947067       -2.1113551449       -1.1799799556
 H        -11.6950775414       -0.7359397339       -0.3676652924
 H        -11.2826922220        1.3495130563        0.8551500682
 H         -8.9729317732        2.1087773399        1.2977189223
 H         -6.4149388073        2.4496313581        1.4974817317
 H         -3.9366955593        2.3281759623        1.4050594539
 H          0.0779625726        2.1036863996        1.4313053670
 H          1.7988821030       -0.2057751949       -1.9647101248
 H          4.2518168571       -0.3124967161       -2.0406965873
 H          5.1347931309       -2.3968852685       -1.1996771306
 H          6.8239303872       -3.9855546786       -2.0260167742
 H          9.2173028854       -3.5068382379       -1.8269284905
 H         10.0004562639       -1.4192031921       -0.7567171259
 H         10.1896346458        1.0098764785        0.4976431897
 H          9.7375119349        3.1735910860        1.6072141632
 H          7.4383752121        3.9434023506        1.9512881844
 H          5.5183266431        2.5805570390        1.2326146017
 H          4.4242388100        0.6210994765        2.1243312469
 H          1.9732715350        0.7732864238        2.1926501437
 H         -0.1373517671       -1.3749056072       -1.0833402271
 H         -4.1278031496       -1.3321622427       -0.7700653194
  67
       -101.82926043
 C         -7.0180543318       -0.4354302939        2.6979891154
 C         -7.0712858344        0.4872249258        1.4760783508
 C         -6.8959686650        1.9479437665        1.9009760114
 C         -8.3544689834        0.2886846262        0.7011835300
 C         -9.6535924016        0.5029551104        1.1082768855
 C        -10.6861675651        0.2492781288        0.2149850434
 C        -10.4210061305       -0.2128553347       -1.0650429830
 C         -9.1186428494       -0.4317908744       -1.4827539791
 C         -8.0859548047       -0.1786944120       -0.5942501834
 C         -6.6476194105       -0.3059706078       -0.7492720869
 C         -5.8836480313       -0.7209575254       -1.8302861449
 C         -4.5082849895       -0.7336492247       -1.7063406769
 C         -3.8914075504       -0.3339201100       -0.5183733970
 C         -2.4360152497       -0.3317330420       -0.4207620178
 N         -1.8824610258        0.1340959535        0.7012984970
 C         -0.5701155964        0.1704402035        0.7687807424
 C          0.2593882747       -0.2684478349       -0.2677366419
 C          1.7173132300       -0.2046290513       -0.1996170189
 C          2.4661947522        0.0974702787       -1.3369601395
 C          3.8422928784        0.1716799668       -1.2784969636
 C          4.5061570817       -0.0485831072       -0.0737596966
 N          5.9004140654        0.0425020388       -0.0091122720
 C          6.7483225139       -0.8852784062        0.5647342070
 C          6.4573443462       -2.1155624106        1.1365749869
 C          7.5110017687       -2.8692878531        1.6173807292
 C          8.8271238769       -2.4218795448        1.5267167252
 C          9.1254348572       -1.2112328058        0.9343017965
 C          8.0831709148       -0.4358295498        0.4438635532
 C          8.0285965112        0.8298773880       -0.2325241979
 C          8.9959518665        1.7500444316       -0.6141286715
 C          8.5929723290        2.9117206376       -1.2415865073
 C          7.2437589239        3.1682553612       -1.4743393164
 C          6.2631434603        2.2680173446       -1.1036683235
 C          6.6637438756        1.0864809733       -0.4963830482
 C          3.7656315907       -0.3545261591        1.0659000633
 C          2.3899403484       -0.4339619581        1.0004058180
 C         -0.4262936254       -0.7646677912       -1.3811453210
 N         -1.7373817149       -0.7884790992       -1.4624640132
 C         -4.6648715864        0.0781052521        0.5723331603
 C         -6.0332362285        0.0875353942        0.4510526245
 H         -7.8092905047       -0.1798471162        3.3988450644
 H         -7.1460298224       -1.4716209509        2.3921324800
 H         -6.0593540851       -0.3373706469        3.2012164081
 H         -7.6845739999        2.2379509719        2.5912876158
 H         -6.9378201961        2.6000590617        1.0312173199
 H         -5.9350646421        2.0835218960        2.3910812050
 H         -9.8732130184        0.8627192021        2.1030436401
 H        -11.7089046341        0.4140039635        0.5211061275
 H        -11.2400960115       -0.4035256449       -1.7429869314
 H         -8.9133985777       -0.7915294096       -2.4799921063
 H         -6.3542667117       -1.0253872760       -2.7532025613
 H         -3.8818790243       -1.0486302708       -2.5259536093
 H         -0.1578830934        0.5866359731        1.6805212658
 H          1.9629978120        0.2892056182       -2.2730243715
 H          4.4131692850        0.3899384970       -2.1683607044
 H          5.4433534335       -2.4813207624        1.1949759264
 H          7.3093749471       -3.8283725318        2.0710044115
 H          9.6222268455       -3.0389780862        1.9175646006
 H         10.1464499359       -0.8719497018        0.8470295189
 H         10.0398413014        1.5582578603       -0.4173739114
 H          9.3290334812        3.6385971431       -1.5504063058
 H          6.9567005601        4.0927552211       -1.9531549326
 H          5.2195186967        2.4870522964       -1.2717211614
 H          4.2751665925       -0.5122777863        2.0045174794
 H          1.8291880157       -0.6845742495        1.8886494448
 H          0.1053138447       -1.1716785819       -2.2332194503
 H         -4.1661348773        0.3806606503        1.4795573634
  67
       -101.82919001
 C         -6.7442225122        2.5315498275        1.0586108976
 C         -7.0100006342        1.5504245627       -0.0870951935
 C         -7.0070680046        2.2848576230       -1.4313129419
 C         -8.3047816552        0.7986843427        0.1230558527
 C         -9.5869938334        1.2946897073        0.2187974909
 C        -10.6356444794        0.4066578110        0.4189792811
 C        -10.4027016396       -0.9563796483        0.5200728008
 C         -9.1174582957       -1.4640887683        0.4240657595
 C         -8.0685191386       -0.5807664347        0.2254684975
 C         -6.6406673430       -0.8146300116        0.0977687457
 C         -5.9033892575       -1.9892655470        0.1367260228
 C         -4.5299865300       -1.9177382307        0.0068910866
 C         -3.8894061327       -0.6882412376       -0.1635117431
 C         -2.4354456736       -0.6256957021       -0.2596391384
 N         -1.8749173742        0.5720570466       -0.4458035324
 C         -0.5628835588        0.6377985598       -0.4697907594
 C          0.2592302566       -0.4829778181       -0.3181848185
 C          1.7160723429       -0.3868612865       -0.2835157916
 C          2.3943942656        0.5149041494       -1.1030349356
 C          3.7666674594        0.6358465685       -1.0345190136
 C          4.4945835914       -0.1321857349       -0.1280468348
 N          5.8802540379        0.0251088357       -0.0239766878
 C          6.8173679220       -0.9897609697       -0.0104156722
 C          6.6436209194       -2.3565965151       -0.1735210360
 C          7.7689501487       -3.1581497398       -0.1445423884
 C          9.0416370595       -2.6199042920        0.0320841704
 C          9.2234269834       -1.2581792680        0.1682949362
 C          8.1074808545       -0.4323269669        0.1429444428
 C          7.9300249339        0.9899462810        0.2345329860
 C          8.8071550178        2.0517662965        0.4117541189
 C          8.2916707358        3.3302004174        0.4873957843
 C          6.9193065490        3.5545446684        0.4051351075
 C          6.0271246689        2.5142276090        0.2284621829
 C          6.5412735163        1.2296825735        0.1252318352
 C          3.8253263602       -1.0455328082        0.6836251404
 C          2.4547813508       -1.1750219649        0.5987877350
 C         -0.4328780960       -1.6893571038       -0.1752988894
 N         -1.7449208798       -1.7615320352       -0.1408814329
 C         -4.6367767541        0.4935090326       -0.2143466120
 C         -6.0018399039        0.4233069233       -0.0820079153
 H         -7.5114625312        3.3018152536        1.0828321648
 H         -6.7482544678        2.0062749391        2.0113049137
 H         -5.7752566528        3.0070425150        0.9282711056
 H         -7.7770641124        3.0527818432       -1.4440430698
 H         -7.1999064912        1.5853557318       -2.2419078076
 H         -6.0411995117        2.7547053159       -1.5999965631
 H         -9.7808168019        2.3548571695        0.1421012999
 H        -11.6454021697        0.7824574884        0.4971362815
 H        -11.2338055697       -1.6286397940        0.6759539058
 H         -8.9377056540       -2.5258785516        0.5039175507
 H         -6.3925721900       -2.9425199463        0.2711927549
 H         -3.9241449030       -2.8095638881        0.0389947663
 H         -0.1430268133        1.6294043240       -0.5920249160
 H          1.8421729439        1.1086970843       -1.8163873408
 H          4.2862996290        1.3189677044       -1.6894271956
 H          5.6641706454       -2.7825990071       -0.3302677071
 H          7.6592302341       -4.2257033255       -0.2651716173
 H          9.8955263333       -3.2802624058        0.0526486634
 H         10.2107341004       -0.8386536052        0.2886440887
 H          9.8689344771        1.8752491222        0.4938610420
 H          8.9563017071        4.1702559036        0.6227270555
 H          6.5431444900        4.5637191171        0.4850716626
 H          4.9642236118        2.6982154197        0.1868827135
 H          4.3839998758       -1.6318747675        1.3974587703
 H          1.9436380709       -1.8675437977        1.2511614872
 H          0.0934499489       -2.6336740330       -0.0993910270
 H         -4.1197961639        1.4304941422       -0.3481897341
  67
       -101.82914765
 C         -6.7745515152        2.4957875000       -1.1258227726
 C         -7.0137953474        0.9854900182       -1.2142437262
 C         -6.9811464767        0.5234463417       -2.6743134803
 C         -8.3122564860        0.5952583657       -0.5453396103
 C         -9.5969664096        0.9842135991       -0.8577902900
 C        -10.6492735701        0.4957219509       -0.0944586952
 C        -10.4170933669       -0.3679191001        0.9651380149
 C         -9.1293418578       -0.7648208486        1.2860143161
 C         -8.0770059522       -0.2796054914        0.5263471665
 C         -6.6463832574       -0.5094481771        0.6281895911
 C         -5.9090149788       -1.2819850740        1.5138048190
 C         -4.5335840754       -1.3071628140        1.3893784418
 C         -3.8908591709       -0.5715284507        0.3910142432
 C         -2.4356372827       -0.5822235043        0.2932731129
 N         -1.8730821227        0.1169650666       -0.6956886471
 C         -0.5607722809        0.1513204354       -0.7532327258
 C          0.2594020888       -0.5128575069        0.1637042215
 C          1.7170036564       -0.4230151627        0.1216647735
 C          2.3983920982       -0.4047070247       -1.0948154686
 C          3.7710201278       -0.2718582017       -1.1331838020
 C          4.4968956729       -0.1543453760        0.0498795470
 N          5.8851121804        0.0161877323        0.0155938414
 C          6.7825317037       -0.7453572349       -0.7070790822
 C          6.5603480155       -1.8708272199       -1.4874902045
 C          7.6539497970       -2.4673341942       -2.0854927927
 C          8.9423938493       -1.9681631352       -1.9089715027
 C          9.1726424295       -0.8634356723       -1.1138200992
 C          8.0893222562       -0.2459729197       -0.5030861664
 C          7.9635914923        0.8793855490        0.3803402095
 C          8.8754845496        1.7793000398        0.9160498738
 C          8.4063806908        2.7915159388        1.7291180582
 C          7.0457203564        2.9210910253        1.9983001350
 C          6.1194902762        2.0378935835        1.4773257138
 C          6.5874990191        1.0044670884        0.6785149459
 C          3.8251503338       -0.1926273252        1.2696515204
 C          2.4523966516       -0.3243467713        1.3024051129
 C         -0.4342017711       -1.2445673945        1.1323950633
 N         -1.7465094026       -1.2763097405        1.2013176052
 C         -4.6378919938        0.1991173450       -0.5065674367
 C         -6.0050837351        0.2261863432       -0.3820023618
 H         -7.5435432190        3.0333014655       -1.6756052662
 H         -6.7987158824        2.8196995062       -0.0875668051
 H         -5.8037641552        2.7472819355       -1.5458384614
 H         -7.7515329138        1.0320988236       -3.2490966808
 H         -7.1542381442       -0.5490450175       -2.7330593441
 H         -6.0123715682        0.7435249640       -3.1158100678
 H         -9.7901450921        1.6569339215       -1.6808916145
 H        -11.6611315037        0.7934582907       -0.3281719840
 H        -11.2508727410       -0.7348635070        1.5457188529
 H         -8.9503797887       -1.4377311457        2.1113778780
 H         -6.3999872370       -1.8514481552        2.2889207111
 H         -3.9279102385       -1.8923022230        2.0633057315
 H         -0.1395024784        0.7522349784       -1.5507107025
 H          1.8466362817       -0.5023250414       -2.0180656863
 H          4.2880575889       -0.2357450045       -2.0802892083
 H          5.5684290719       -2.2768992910       -1.6163522652
 H          7.5064101691       -3.3423060940       -2.7011270241
 H          9.7704494782       -2.4616533935       -2.3952578313
 H         10.1725943013       -0.4857647169       -0.9633048526
 H          9.9277594092        1.6890427998        0.6923699054
 H          9.0985908523        3.5011299946        2.1571002627
 H          6.7059548411        3.7325518712        2.6246692876
 H          5.0654638030        2.1606177960        1.6756150666
 H          4.3876651594       -0.1251017186        2.1886722058
 H          1.9399435675       -0.3333223888        2.2530489618
 H          0.0914850033       -1.8376786326        1.8716632182
 H         -4.1191524066        0.7570575324       -1.2699153949
  67
       -101.82908870
 C         -6.9299263095        2.6816976456        0.3603217712
 C         -7.0700651322        1.4324080304       -0.5134401080
 C         -6.9776165203        1.8039388285       -1.9973233557
 C         -8.3552804701        0.6920676011       -0.2201259759
 C         -9.6550457919        1.1344704393       -0.3391466428
 C        -10.6900970192        0.2694522450       -0.0091128791
 C        -10.4263901146       -1.0184380641        0.4315481920
 C         -9.1233197714       -1.4725846348        0.5519365338
 C         -8.0880697836       -0.6118578636        0.2241458804
 C         -6.6483998245       -0.8016794793        0.2568674336
 C         -5.8839709445       -1.9037858423        0.6112900071
 C         -4.5074286438       -1.8051361625        0.5527270780
 C         -3.8905997746       -0.6160392966        0.1576052691
 C         -2.4352637333       -0.5249988704        0.1220233766
 N         -1.8893855549        0.6810621030       -0.0502422111
 C         -0.5778918702        0.7650700578       -0.0597840836
 C          0.2599319819       -0.3475096234        0.0709710407
 C          1.7168611111       -0.2491401911        0.0492956480
 C          2.3549883643        0.7221678539       -0.7232142989
 C          3.7304694307        0.8201845669       -0.7424918045
 C          4.5064508629       -0.0533394713        0.0157250626
 N          5.9016166336        0.0480693237        0.0011835778
 C          6.7855931009       -0.9853474560       -0.2394756383
 C          6.5286339222       -2.3099560612       -0.5619643693
 C          7.6101386190       -3.1391326814       -0.7905686711
 C          8.9184431111       -2.6673633249       -0.7095958368
 C          9.1794511776       -1.3451909503       -0.4100396710
 C          8.1089686959       -0.4921007771       -0.1765773917
 C          8.0088881015        0.9080526245        0.1279962416
 C          8.9470631269        1.9101688350        0.3374005507
 C          8.5010828355        3.1798677931        0.6455645842
 C          7.1398214050        3.4535138334        0.7590230484
 C          6.1873708655        2.4735026421        0.5545677753
 C          6.6291519685        1.2008467032        0.2231032853
 C          3.8786990781       -1.0271230419        0.7887947987
 C          2.5027790989       -1.1221759939        0.8025738821
 C         -0.4195500871       -1.5606193690        0.2258256425
 N         -1.7301790526       -1.6488346898        0.2659128274
 C         -4.6639004729        0.4932048243       -0.2009028060
 C         -6.0328948033        0.3911045365       -0.1570288428
 H         -7.7186790618        3.3941173147        0.1303454470
 H         -6.9983653198        2.4142644682        1.4125511616
 H         -5.9679737160        3.1566205219        0.1843059904
 H         -7.7666818091        2.5039448594       -2.2618114733
 H         -7.0813324755        0.9138750978       -2.6143517709
 H         -6.0156509766        2.2637561220       -2.2099373862
 H         -9.8730189871        2.1358919375       -0.6810427435
 H        -11.7134106229        0.6041524089       -0.0963924928
 H        -11.2473308852       -1.6734711841        0.6844369802
 H         -8.9195895135       -2.4755234584        0.8963857313
 H         -6.3551386427       -2.8227655275        0.9267747099
 H         -3.8811329161       -2.6424188522        0.8177341562
 H         -0.1742840450        1.7658999668       -0.1579742609
 H          1.7681834313        1.3897022298       -1.3363269131
 H          4.2153714586        1.5625583514       -1.3586310167
 H          5.5178545678       -2.6803125377       -0.6446584413
 H          7.4368674906       -4.1749414830       -1.0424197519
 H          9.7365110600       -3.3473919235       -0.8943882647
 H         10.1926972653       -0.9758427268       -0.3629857652
 H         10.0023103033        1.6944279289        0.2651911028
 H          9.2139991577        3.9736450994        0.8112630362
 H          6.8216447536        4.4528135897        1.0169295530
 H          5.1352863947        2.6907199706        0.6624187295
 H          4.4770138344       -1.6934561313        1.3920045687
 H          2.0296505616       -1.8640282838        1.4283908057
 H          0.1149099352       -2.4998630082        0.3047549683
 H         -4.1647255276        1.3990874357       -0.5066732519
  67
       -101.82896969
 C         -7.0170617384        2.2686813773       -1.3826240868
 C         -6.9944994119        0.7371642487       -1.3691335316
 C         -6.6971720166        0.1946068321       -2.7702292015
 C         -8.2887775055        0.1754959845       -0.8259242320
 C         -9.5653854919        0.3030073265       -1.3291282372
 C        -10.6148015405       -0.3095645679       -0.6568743429
 C        -10.3880496723       -1.0371433610        0.5014074127
 C         -9.1084415213       -1.1701884712        1.0148907377
 C         -8.0587516181       -0.5610497835        0.3461889142
 C         -6.6355091457       -0.5347461689        0.6352415363
 C         -5.9044750051       -1.1108250647        1.6641483204
 C         -4.5337379105       -0.9406344711        1.6832205906
 C         -3.8897479775       -0.2003585577        0.6891138038
 C         -2.4376414166       -0.0648035556        0.6995516333
 N         -1.8747534511        0.6739413020       -0.2600934311
 C         -0.5628919928        0.7395969756       -0.2932505739
 C          0.2563115993        0.0805660189        0.6283872795
 C          1.7141072754        0.1003512309        0.5340652527
 C          2.3926694764        1.2526359015        0.1388623315
 C          3.7640316736        1.2474998793       -0.0120499128
 C          4.4908879395        0.0841443905        0.2297029796
 N          5.8755904807        0.0583365273        0.0310362187
 C          6.5561128181       -0.8763850512       -0.7257531677
 C          6.0657236922       -1.9502978271       -1.4546631151
 C          6.9718997471       -2.7199218715       -2.1587041107
 C          8.3343558360       -2.4297097327       -2.1502222444
 C          8.8250407891       -1.3478146061       -1.4470654889
 C          7.9335777151       -0.5591164940       -0.7317652720
 C          8.0831855209        0.6251070744        0.0669753049
 C          9.1783272285        1.3928448001        0.4400846053
 C          8.9715097222        2.4880021174        1.2547567642
 C          7.6950039741        2.8119078369        1.7090673653
 C          6.5898884128        2.0633359197        1.3514518063
 C          6.7881381911        0.9760023479        0.5127809711
 C          3.8229827293       -1.0629632509        0.6522269499
 C          2.4517078393       -1.0527041833        0.8009961596
 C         -0.4386851336       -0.6211238149        1.6179239379
 N         -1.7505208083       -0.6980668693        1.6523172140
 C         -4.6311455160        0.3900396166       -0.3401920051
 C         -5.9933906351        0.2180790081       -0.3616761804
 H         -7.7815182102        2.6293634691       -2.0667823633
 H         -7.2334840415        2.6499411402       -0.3869760497
 H         -6.0519929452        2.6553183258       -1.7006185212
 H         -7.4587679602        0.5239742048       -3.4731473061
 H         -6.6834781730       -0.8931163187       -2.7565904610
 H         -5.7283284699        0.5498618119       -3.1124007654
 H         -9.7543031805        0.8670605376       -2.2310310537
 H        -11.6200950848       -0.2188779408       -1.0415550176
 H        -11.2194967769       -1.5059248780        1.0072310277
 H         -8.9335647571       -1.7378397344        1.9166818786
 H         -6.3962277836       -1.6869623663        2.4337864043
 H         -3.9326196089       -1.3801349590        2.4635782154
 H         -0.1403180754        1.3222523637       -1.1034956550
 H          1.8395521714        2.1611346658       -0.0484822799
 H          4.2787177978        2.1375171576       -0.3416871978
 H          5.0097458751       -2.1728476690       -1.4842240997
 H          6.6146515770       -3.5627390670       -2.7317652313
 H          9.0105580608       -3.0568559377       -2.7116695411
 H          9.8784317752       -1.1120662605       -1.4546417714
 H         10.1693277304        1.1318592834        0.1007936934
 H          9.8091497130        3.0997678806        1.5545982339
 H          7.5664409192        3.6654345907        2.3581560774
 H          5.6075314978        2.3120939671        1.7239058975
 H          4.3873925509       -1.9580671738        0.8663499058
 H          1.9413529793       -1.9541629952        1.1065386429
 H          0.0848160131       -1.1294513613        2.4192236356
 H         -4.1116076540        0.9578645093       -1.0956860047
  67
       -101.82885827
 C         -7.0445051159        2.2538386216       -1.3863021225
 C         -6.9900274208        0.7230747497       -1.3734474573
 C         -6.6659319425        0.1878613131       -2.7713977599
 C         -8.2783604999        0.1344419378       -0.8448147963
 C         -9.5514137263        0.2337857370       -1.3631835202
 C        -10.5950954713       -0.4012780321       -0.7029688618
 C        -10.3663906060       -1.1228621057        0.4586546953
 C         -9.0904350054       -1.2272403808        0.9876251249
 C         -8.0464037133       -0.5958736096        0.3307790829
 C         -6.6273109439       -0.5400920555        0.6356459777
 C         -5.8961601410       -1.1015320569        1.6725027161
 C         -4.5288904816       -0.9074635425        1.7040059617
 C         -3.8886172114       -0.1574899385        0.7147569662
 C         -2.4382607355       -0.0052679825        0.7335854969
 N         -1.8775546598        0.7419063749       -0.2207735669
 C         -0.5657470934        0.8102495176       -0.2542977153
 C          0.2551439587        0.1448390613        0.6611989618
 C          1.7124460375        0.1535966302        0.5582881838
 C          2.4007393604        1.2996427020        0.1621039516
 C          3.7709193210        1.2796495790        0.0005500912
 C          4.4862609816        0.1071778715        0.2321141892
 N          5.8687857527        0.0639403893        0.0215172329
 C          6.5298315966       -0.8809540209       -0.7398819875
 C          6.0173356759       -1.9431739754       -1.4707990789
 C          6.9069851579       -2.7275116033       -2.1796577676
 C          8.2747069546       -2.4630739959       -2.1737318769
 C          8.7875136691       -1.3927193475       -1.4686708846
 C          7.9128871763       -0.5893622934       -0.7488581036
 C          8.0865401893        0.5894765261        0.0529927080
 C          9.1968921724        1.3351884267        0.4258136772
 C          9.0127790300        2.4313306989        1.2445767111
 C          7.7436772498        2.7779770917        1.7028341213
 C          6.6237383199        2.0514514180        1.3457933047
 C          6.7994403983        0.9630034001        0.5035763530
 C          3.8088080938       -1.0337475190        0.6562589792
 C          2.4391310475       -1.0085710982        0.8157605943
 C         -0.4381509403       -0.5570365531        1.6519106665
 N         -1.7497138059       -0.6363225665        1.6867967604
 C         -4.6307089016        0.4202771307       -0.3211538517
 C         -5.9894293144        0.2240447863       -0.3553447346
 H         -7.8086836854        2.5990181589       -2.0787937218
 H         -7.2799348577        2.6296971481       -0.3928882715
 H         -6.0841741843        2.6606755408       -1.6932919341
 H         -7.4266582074        0.5015804731       -3.4823046607
 H         -6.6293289750       -0.8993693428       -2.7582226570
 H         -5.7012218515        0.5640014656       -3.1028435195
 H         -9.7417703943        0.7924897670       -2.2681056109
 H        -11.5973591388       -0.3334145865       -1.1000214109
 H        -11.1933783164       -1.6091600453        0.9551704584
 H         -8.9138884432       -1.7904172900        1.8918827198
 H         -6.3848885515       -1.6855870905        2.4380824751
 H         -3.9273561128       -1.3361137980        2.4900451418
 H         -0.1447523776        1.3999001612       -1.0602847823
 H          1.8563951508        2.2149558308       -0.0176189991
 H          4.2930266546        2.1650084286       -0.3299582742
 H          4.9572355524       -2.1454797747       -1.4983795071
 H          6.5324028017       -3.5616924338       -2.7543098924
 H          8.9375148714       -3.1011681580       -2.7387998382
 H          9.8451438152       -1.1768830548       -1.4783957825
 H         10.1819715462        1.0566423971        0.0832107170
 H          9.8625633570        3.0261331478        1.5443742689
 H          7.6328683994        3.6315353210        2.3551488616
 H          5.6471590558        2.3175779497        1.7213761223
 H          4.3647869221       -1.9359278360        0.8625438802
 H          1.9209593704       -1.9051659286        1.1224464606
 H          0.0867430992       -1.0641142901        2.4530902944
 H         -4.1141939888        0.9967998162       -1.0721246126
