  70
       -113.03810421
 C          4.1945595430       -3.2454571672       -0.6227460209
 C          4.6618490746       -1.9476036628       -0.4046045896
 C          3.7124074227       -0.9468021195       -0.1902816836
 N          4.0726064436        0.3880089711       -0.0609972856
 C          3.4305761024        1.3137059316        0.7525045833
 C          2.3236080067        1.1594053129        1.5731307306
 C          1.8947228314        2.2594554334        2.2929297500
 C          2.5514861394        3.4844539465        2.2133241649
 C          3.6633671033        3.6401887901        1.4087297774
 C          4.1070348621        2.5506162218        0.6721149124
 C          5.1875959535        2.3709240277       -0.2581786396
 C          6.1534872296        3.2312143936       -0.7600741400
 C          7.0316199793        2.7566603135       -1.7149604633
 C          6.9296677825        1.4518624890       -2.1870837582
 C          5.9758397741        0.5771529992       -1.6981369306
 C          5.1218811255        1.0297673000       -0.7022859332
 N          2.4232953919       -1.2113859594       -0.0581585818
 C          1.9800762400       -2.4718030771       -0.1824560073
 N          0.6262778502       -2.6528094854        0.0034497319
 C         -0.3266923698       -1.6633166407       -0.1648214845
 C         -0.1904203392       -0.3631103422       -0.6096103962
 C         -1.3143970132        0.4481176355       -0.6511533369
 C         -2.5784162032       -0.0522702340       -0.2710897729
 N         -3.6759060777        0.8057506874       -0.2936069326
 C         -3.7060837769        2.0843651005        0.2284014120
 C         -2.7241273382        2.7784971240        0.9216047273
 C         -3.0311839126        4.0495778762        1.3750173105
 C         -4.2846545768        4.6145241746        1.1583735191
 C         -5.2773490731        3.9158434801        0.4938949637
 C         -4.9923026710        2.6409000936        0.0288375314
 C         -5.7672253135        1.6414448084       -0.6562782892
 C         -7.0671682903        1.6061694505       -1.1376667661
 C         -7.4992456105        0.4652595244       -1.7911113487
 C         -6.6480349594       -0.6195180641       -1.9814394046
 C         -5.3461175065       -0.6062133385       -1.5118249094
 C         -4.9166117726        0.5230864107       -0.8291664108
 C         -2.7417566809       -1.3704259826        0.1336151800
 C         -1.6144326158       -2.1935719586        0.1928162842
 C         -1.4143480397       -3.5308884268        0.5813700261
 N         -2.2881082514       -4.4557276114        1.0070225517
 C         -1.8157635180       -5.6280279491        1.3804650173
 C         -0.4689782592       -5.9444747029        1.3967938625
 C          0.4740476519       -5.0066469937        0.9242896808
 C         -0.0078837736       -3.8026254209        0.4772904058
 C          2.8450732476       -3.5161868276       -0.5377491732
 H          4.8927106100       -4.0337660185       -0.8605468877
 H          5.7158322174       -1.7330059900       -0.3731065143
 H          1.8074494348        0.2160852532        1.6357564314
 H          1.0291566599        2.1640578739        2.9319721997
 H          2.1854667741        4.3210131772        2.7900837592
 H          4.1782172016        4.5871192369        1.3483443399
 H          6.2066910300        4.2525860035       -0.4150531699
 H          7.7934114277        3.4075726699       -2.1170084878
 H          7.6048436552        1.1140890416       -2.9592652291
 H          5.8915347543       -0.4163748458       -2.1093577636
 H          0.7675504771        0.0192659084       -0.9194433103
 H         -1.2383004147        1.4562528033       -1.0240425943
 H         -1.7568234309        2.3404749173        1.1123863917
 H         -2.2825977980        4.6119289766        1.9122683337
 H         -4.4864092757        5.6095679181        1.5257281986
 H         -6.2550454271        4.3480902462        0.3450488616
 H         -7.7231172029        2.4535277063       -1.0087846225
 H         -8.5088579707        0.4172444300       -2.1707164366
 H         -7.0082790680       -1.4882221837       -2.5114085379
 H         -4.6860234669       -1.4422848712       -1.6820813272
 H         -3.6984445492       -1.7394205893        0.4658964209
 H         -2.5570231858       -6.3497328148        1.6976607310
 H         -0.1402995943       -6.9074384833        1.7508494633
 H          1.5222876592       -5.2567023022        0.9424769519
 H          2.4579624695       -4.4906172269       -0.7821851997
