70
 energy: -113.041403624341 gnorm: 0.000164799703 xtb: 6.7.1 (edcfbbe)
C            4.20934204144630       -3.20088831614546       -0.71517485215065
C            4.66938366404493       -1.90701215114806       -0.48298377553024
C            3.71612365890055       -0.91627755913597       -0.23583214223821
N            4.06514589719815        0.41809102002686       -0.07990161436824
C            3.41973803420350        1.31884891823419        0.76010807496642
C            2.31275239733631        1.13902426126333        1.57547908800609
C            1.88367892279311        2.21594945431753        2.32900640530878
C            2.53903170821337        3.44354633799524        2.28707431664951
C            3.64926717915254        3.62493787314322        1.48608933531447
C            4.09302970917427        2.55868722734432        0.71601429942390
C            5.17281263480907        2.41001432130733       -0.22088605380813
C            6.13417327502393        3.28895901082182       -0.69850929127646
C            7.01201113662907        2.84714745955382       -1.66891226337596
C            6.91376669538075        1.55666859747672       -2.17947478120094
C            5.96498068772793        0.66378241279519       -1.71469518510440
C            5.11117405834721        1.08266312265014       -0.70397016829739
N            2.43088232415672       -1.19505240657899       -0.09632712536381
C            1.99677302543520       -2.45113472240698       -0.23994547439370
N            0.64512235766627       -2.64453391606525       -0.03911339187865
C           -0.31786626136491       -1.66054119389873       -0.19587399713651
C           -0.20089553224760       -0.36983625375820       -0.66712768057833
C           -1.33546125615558        0.43009254642902       -0.70581867247640
C           -2.58428637867616       -0.07382389157378       -0.28885321849016
N           -3.69233755861574        0.77458708129450       -0.30740659204265
C           -3.72693806874770        2.06035029540033        0.19424325599795
C           -2.73865176726747        2.77809084827575        0.85507585674356
C           -3.04968656519020        4.05377121906502        1.28868313412465
C           -4.31281179234642        4.60301038796497        1.08596251079106
C           -5.31069959740404        3.88132914440875        0.45522652158458
C           -5.02147919067014        2.60107350047047        0.00957437434171
C           -5.79898269508533        1.58142974999159       -0.64411297059854
C           -7.10733749857099        1.52430676175872       -1.09815001575805
C           -7.54042079031837        0.36811252649934       -1.72274680081156
C           -6.68044632202983       -0.71044916453931       -1.91126752991877
C           -5.37083717762266       -0.67553318047088       -1.46874041314706
C           -4.93915630552073        0.47046947680927       -0.81445901222130
C           -2.72882714531148       -1.38240520452363        0.14910606397803
C           -1.59103765430089       -2.19653189424324        0.20122301461884
C           -1.37211122016781       -3.52292897361244        0.60067809741237
N           -2.21938766290970       -4.45813413746022        1.06752306953549
C           -1.73421876721731       -5.62661720131974        1.44610158071282
C           -0.39062517681426       -5.92966697911143        1.42610944132406
C            0.53410536628482       -4.98796574802720        0.90602466806805
C            0.03179574705287       -3.79293811954312        0.46193389426046
C            2.86246054599610       -3.48515012415144       -0.61926811849521
H            4.91037494657771       -3.98141954682629       -0.97092057730654
H            5.72225511450270       -1.68496665533815       -0.46768691335569
H            1.79617637572484        0.19451312306401        1.60871636899869
H            1.01833106022108        2.09998959876576        2.96506612623553
H            2.17285367393448        4.26136580638397        2.89005318247656
H            4.16337384050513        4.57369672655528        1.45390923517314
H            6.18358766281581        4.29979606983336       -0.32311504601914
H            7.77019354790580        3.51289954021738       -2.05317928576782
H            7.58811931450267        1.24495201572962       -2.96333622967688
H            5.88430185564828       -0.31710037806434       -2.15596222701733
H            0.74755267474909        0.01731625759461       -0.99943722385148
H           -1.27597473505329        1.43110115309529       -1.10043172625643
H           -1.76333114004872        2.35316352560551        1.03455773278976
H           -2.29640943186734        4.63434937177962        1.79983804202588
H           -4.51699962689568        5.60326407454510        1.43751970539990
H           -6.29555041615789        4.30085844439030        0.31682700441640
H           -7.76976047703816        2.36689589195482       -0.97023875425086
H           -8.55696997202675        0.30218808167646       -2.08057497260379
H           -7.04221894760007       -1.59224034990855       -2.41841347369512
H           -4.70490233982393       -1.50744375654871       -1.63672772729232
H           -3.67621729127179       -1.75122594271311        0.50734981786709
H           -2.46390326550682       -6.34655750162380        1.79119089026188
H           -0.04348237447828       -6.88669987425585        1.77799729898464
H            1.58205200615220       -5.23658885260622        0.88684932426760
H            2.48073229970744       -4.46095734854941       -0.86612765720800
