78
 energy: -129.360515294933 gnorm: 0.000076344350 xtb: 6.7.1 (edcfbbe)
N           -2.08762139550975        1.08524840015794        2.33034792865985
C           -1.37175381400348        0.43364822166568        1.71630078233716
C           -0.44750393762696       -0.36778939994595        1.00645348047068
C            0.88304103773364        0.03255037011706        0.94959688215178
C            1.82309419286937       -0.75367820834090        0.29514963089903
C            3.22129008920525       -0.32494748656159        0.23182088733697
N            3.55566776956231        0.79141429919358        0.86871341665084
C            4.83891604071484        1.13879001375228        0.79711983327927
C            5.26313602990299        2.34929017589410        1.49809861225992
C            4.33722299670942        3.10584106815846        2.21450160606177
C            4.74322661839096        4.24652780188890        2.87905947023851
C            6.07143250078710        4.64130132347278        2.83536329225796
C            6.99626074760967        3.89250472864819        2.12379990641977
C            6.59722252818666        2.75093048102920        1.45676247094553
N            5.75602505958747        0.44774817159433        0.12646113676460
C            5.33061745390513       -0.64992586625921       -0.49084192934037
C            6.30377383311573       -1.43349965916785       -1.25050557541135
C            5.90249824689854       -2.58122574615390       -1.93176478448581
C            6.82462736142570       -3.31697607649690       -2.65002206691181
C            8.15092639455830       -2.91598937775672       -2.69509918890938
C            8.55528059907910       -1.77503796942220       -2.01925401116171
C            7.63827525239742       -1.03463671076884       -1.29921949385165
N            4.07036800108093       -1.07882367536468       -0.45799343358027
C            1.42476294335869       -1.95238471482315       -0.29957600308039
C            0.10827382427750       -2.35783518375020       -0.24371835900387
C           -0.84772614384622       -1.57433461849578        0.39988618738353
N           -2.17499187899296       -1.98847428026579        0.46446211256829
C           -2.60342716104054       -3.17677450607727        1.04008135914826
C           -1.86027547829097       -4.25266575951004        1.49644805772061
C           -2.54473386945611       -5.31516827185984        2.05829336553480
C           -3.93141994267437       -5.30244822123166        2.17427408153958
C           -4.67123876320023       -4.21794635262825        1.74507547754535
C           -4.00671696782357       -3.14017605649247        1.17531431813197
C           -4.45430540978090       -1.87239495684630        0.65972344005426
C           -5.75262731736686       -1.35640133892058        0.58510033439488
C           -5.89314230689540       -0.09236182768496        0.03381587864009
C           -6.89847821447044        0.90076250270891       -0.30112948558322
C           -8.27075848879984        0.94883686232307       -0.12192188655909
C           -8.96597902134540        2.06140503100154       -0.56445982565583
C           -8.30930249880552        3.11951692818706       -1.17952230101392
C           -6.93714303445763        3.10136709786781       -1.37321454741344
C           -6.23406185380197        1.99557600563400       -0.93606201865043
N           -4.87908201785253        1.70511895626181       -0.99803538808252
C           -3.63767367672905        2.11376662274234       -1.44668787785006
C           -3.26991465877550        3.26205241449423       -2.12285523137611
C           -1.94616615141206        3.40286104070557       -2.50090157755358
C           -1.01529320314338        2.40795935904351       -2.23074045619707
C           -1.37138327289514        1.25483536600524       -1.55432229794383
C           -2.68108413089827        1.09711437650373       -1.12354797565421
C           -3.39119623310996        0.04227977624297       -0.42194564919655
C           -3.27700535716755       -1.19574584617851        0.21734736665510
C           -4.70814318985237        0.48782166082540       -0.41823240165580
H            1.19292032196109        0.95566737320296        1.41377448265314
H            3.30798693714985        2.78433333985767        2.23914692070268
H            4.02432304897254        4.83116578793244        3.43391935176730
H            6.38636748004665        5.53347441426521        3.35661574949530
H            8.03052155948253        4.20227569439618        2.09140537113317
H            7.30247463567212        2.15566897705207        0.89852354289914
H            4.86642578201683       -2.87767905843920       -1.88693450899592
H            6.51197904780124       -4.20601784426524       -3.17789699795809
H            8.87006193578344       -3.49310122348877       -3.25780468085276
H            9.58915956225302       -1.46458951855788       -2.05608287168877
H            7.93428428476520       -0.14430286155988       -0.76731137485729
H            2.16562270866452       -2.54763695454353       -0.80907140929531
H           -0.20389628925591       -3.27466153727180       -0.72079701500600
H           -0.78277748604090       -4.26393533403104        1.42937513186746
H           -1.99008812985121       -6.16918632725213        2.41741852874598
H           -4.43157863249635       -6.15100574932188        2.61656931209290
H           -5.74487685747111       -4.20314217219436        1.85350097941046
H           -6.58764869247942       -1.93567354774925        0.94576860131536
H           -8.78605491410609        0.12961688484834        0.35663684975072
H          -10.03630197788145        2.10997841551848       -0.42970625475054
H           -8.87782034448875        3.97456848519265       -1.51394921396451
H           -6.43562632857885        3.92862340851757       -1.85111318243601
H           -3.99673041495823        4.02464330998279       -2.35568952290041
H           -1.63604837386001        4.29312544961697       -3.02728980978822
H            0.00576406636954        2.53340884923173       -2.55943235588105
H           -0.63423206078095        0.48495879393341       -1.38737517339374
