78
 energy: -129.288207698747 gnorm: 0.000100573744 xtb: 6.7.1 (edcfbbe)
N           -1.96480085687596        0.86777743058856        2.38513797576205
C           -1.21689860042489        0.28864043660479        1.73539974886024
C           -0.28100089927384       -0.42889920040241        0.95951051522931
C            1.03293701902414       -0.00427336363162        0.91814529914034
C            1.99721776590968       -0.72037821714932        0.18630874344394
C            3.34342101439325       -0.27820893478807        0.14249192243991
N            3.69438265429876        0.88348485526657        0.75043384624573
C            4.93628684911135        1.27913185070648        0.68888208962210
C            5.31691332670397        2.54219555138208        1.30735341881376
C            4.35608392355562        3.33975842898168        1.93025547611805
C            4.72128891441905        4.53846667288568        2.50826552234832
C            6.04377838630111        4.95571990249543        2.47285763482860
C            7.00284755900990        4.16754298933237        1.85552352875151
C            6.64528840448460        2.96711679305521        1.27474458847454
N            5.89200417028159        0.55819101111428        0.06858997171067
C            5.51537712291746       -0.59806361048579       -0.51621574840629
C            6.53641587603548       -1.39925692689299       -1.17729913304153
C            6.20006421009985       -2.61067672258328       -1.78312652989849
C            7.17328063359126       -3.36990317564921       -2.39986639980955
C            8.48993839699950       -2.93335124237003       -2.42061906022463
C            8.83030641825762       -1.73057515515946       -1.82097300853941
C            7.86220392568752       -0.96524255726510       -1.20205668139452
N            4.27848349686550       -1.01499510073257       -0.50697043502831
C            1.58822642919599       -1.88884474615463       -0.50145902889526
C            0.28226277154902       -2.30494168167983       -0.46737064462441
C           -0.67823334682827       -1.58884153497727        0.25160650802318
N           -2.00866697276030       -2.02478541359562        0.31009829097180
C           -2.41095405750652       -3.24620067025696        0.81739560250781
C           -1.64002853918138       -4.32582909848202        1.22072063969161
C           -2.30072295196992       -5.44058232535895        1.70430609018821
C           -3.68913541213840       -5.47523303902545        1.79457074539132
C           -4.45837849770054       -4.38869888534242        1.41618230137248
C           -3.81898807601611       -3.26068385900504        0.92535136996554
C           -4.28957900159434       -1.97549195282699        0.47333609056190
C           -5.59007052460029       -1.47505193467305        0.43229008235220
C           -5.74863555691123       -0.17290247988377       -0.03378067829418
C           -6.76548294732441        0.82608998607014       -0.28971202957739
C           -8.13921797066218        0.84270541315041       -0.10305180709166
C           -8.84853886501410        1.97747135248221       -0.45437119449796
C           -8.20631182142889        3.08943346785887       -0.98672787009791
C           -6.83476332288792        3.10454311738301       -1.18633747454189
C           -6.11584156527558        1.97722722092604       -0.83981235538546
N           -4.75888230195269        1.70888261306400       -0.92670108405721
C           -3.51998181234037        2.17067708142124       -1.33402840669161
C           -3.16480123547740        3.37422112908585       -1.91175501700820
C           -1.83897426471547        3.56328971275405       -2.26446254465979
C           -0.89458636880512        2.56359125416839       -2.06572991407127
C           -1.23768618253452        1.35482873451182       -1.48786577606635
C           -2.55001833903919        1.14476515508843       -1.08510637512330
C           -3.24684646883140        0.03082824292740       -0.47220394340059
C           -3.11395815374206       -1.25320396019831        0.07892599724911
C           -4.57095307312648        0.45356285523807       -0.44188313880354
H            1.33450403349916        0.88043783703107        1.45718312606730
H            3.33098479434729        3.00327979016119        1.94847738965721
H            3.97459412588035        5.15342531877583        2.98890556309513
H            6.32607057714983        5.89472712620016        2.92582086641358
H            8.03248196657119        4.49325425363885        1.82828573070541
H            7.38021361673193        2.34283660221096        0.79027384064273
H            5.17209062849465       -2.93756198620842       -1.75684309841726
H            6.90952060407598       -4.30757546993322       -2.86702609201704
H            9.24945667818668       -3.53068861774899       -2.90322344424386
H            9.85579851251913       -1.39134824099981       -1.83722687071025
H            8.11199740404470       -0.02739361248669       -0.73034361603062
H            2.32818371489928       -2.43513660065842       -1.06396743979853
H           -0.02868441429046       -3.18140704746623       -1.01729917691438
H           -0.56254944212149       -4.29579282366015        1.16787520633819
H           -1.72746072550988       -6.29857465430728        2.02156127808736
H           -4.17082039792679       -6.36322901147626        2.17549995558070
H           -5.53364057198018       -4.41668036080450        1.50387062926061
H           -6.41849200814137       -2.08414305427274        0.75738000809872
H           -8.64204910807698       -0.01779088214170        0.31177710698420
H           -9.91857408314650        2.00317212854947       -0.31266679698420
H           -8.78679970999606        3.96090546526479       -1.25016486182610
H           -6.34605378893844        3.97342733215259       -1.59874920084164
H           -3.90013781204255        4.14370911697927       -2.08811432043559
H           -1.53814301589805        4.49812539858871       -2.71303089503874
H            0.12730219424167        2.73138379350672       -2.37097319707628
H           -0.49106601598246        0.58627293242978       -1.36811952130410
