78
 energy: -129.288313150581 gnorm: 0.000130892143 xtb: 6.7.1 (edcfbbe)
N           -1.93634549550845        0.93289839457393        2.42930408096187
C           -1.19510066183067        0.33535300236677        1.78876610085668
C           -0.27332172605174       -0.40510346828474        1.01758411501220
C            1.04663021927428       -0.00227745536822        0.95975926180521
C            1.98897395779351       -0.73384113943993        0.21439338812424
C            3.34035350015848       -0.31122371742034        0.14884146766850
N            3.73426484282619        0.80419871747451        0.81466491636442
C            4.98245266907227        1.17722435143366        0.74146091962479
C            5.41380720885479        2.37633233797828        1.44789711393195
C            4.49862889447860        3.12605015844099        2.18790056930067
C            4.91334583189787        4.25962539158038        2.85676777712095
C            6.24052120904374        4.65873470299915        2.79663166654671
C            7.15424631378886        3.91832321640340        2.06245914500314
C            6.74698590929403        2.78309881459733        1.39042165169966
N            5.90029101604078        0.48767543361751        0.03442194612510
C            5.47975491418377       -0.61752843671694       -0.61559988252874
C            6.45614302064390       -1.37589997232207       -1.38580844493018
C            6.06911182116188       -2.52092544469663       -2.08350589301160
C            6.99865255278214       -3.23556644235334       -2.81097148168155
C            8.32157086223478       -2.81993305385896       -2.85230949325765
C            8.71230668091995       -1.68336841523760       -2.16120741915824
C            7.78808738133403       -0.96293248243314       -1.43125328491480
N            4.23876918335824       -1.02036280538022       -0.57857686436535
C            1.55250995058019       -1.89707427634032       -0.46550454687999
C            0.24269225546021       -2.29832910317371       -0.40489143512534
C           -0.69593893788074       -1.56471274755029        0.32433453459165
N           -2.03262166901467       -1.97987047125734        0.40608578893995
C           -2.44924274611787       -3.17444038429351        0.96156674780569
C           -1.69009120666497       -4.24823927825617        1.40093087117863
C           -2.36282408236456       -5.33356013407310        1.93234528923740
C           -3.75104435828455       -5.34467196639071        2.03248556900172
C           -4.50824000643882       -4.26416140504197        1.61435696443184
C           -3.85690664621231       -3.16532384613237        1.07539483032269
C           -4.31189465624847       -1.89342902304747        0.57226689989545
C           -5.60660618133838       -1.38092910443620        0.50363240060287
C           -5.74920758086148       -0.09937562378730       -0.02114190965291
C           -6.75540294010195        0.89405609430557       -0.33492276501468
C           -8.13095951229538        0.92932600230608       -0.16508792428141
C           -8.82803554754609        2.04978351629875       -0.58094009023777
C           -8.17185005555424        3.12936558695637       -1.16079570780556
C           -6.79805367858106        3.12538861285479       -1.34473697781135
C           -6.09130775478613        2.01202760410342       -0.93398720355288
N           -4.73557572557635        1.73009957663590       -0.99303615010861
C           -3.48984339587521        2.15973252440647       -1.41476459105455
C           -3.11964482423718        3.33004073961269       -2.04865193079924
C           -1.78976824587906        3.48958187524718       -2.40079690753748
C           -0.85557526826335        2.49342489782709       -2.14446142413631
C           -1.21363168285265        1.31776869787670       -1.51011468016780
C           -2.53122289445827        1.13823555570090       -1.10987662468288
C           -3.24303316266125        0.06064918083783       -0.45124309608617
C           -3.12747773512329       -1.20220791425888        0.14973691228566
C           -4.56270609138576        0.49789194443310       -0.44705135982121
H            1.36882781540147        0.88070177606533        1.48958111061913
H            3.46963462135378        2.80347339110526        2.22585376309540
H            4.20203758343584        4.83711608391728        3.42884865953455
H            6.56185567011840        5.54613882766376        3.32183380985115
H            8.18758438746100        4.22984255487216        2.01611154531387
H            7.44641406092416        2.19619313398132        0.81518755230723
H            5.03654565724881       -2.83131390552089       -2.04181285678998
H            6.69548429053262       -4.12136325761487       -3.34994594187744
H            9.04660961233991       -3.38167338229071       -3.42269468709504
H            9.74261368723410       -1.36027682338125       -2.19374990655454
H            8.07724475994275       -0.07643584016497       -0.88813872791786
H            2.27595707444716       -2.45492008446245       -1.03803097415072
H           -0.08830992563621       -3.17629267201411       -0.94060947493529
H           -0.61272915986909       -4.23482701879733        1.33786858310133
H           -1.79965748688839       -6.18653003342054        2.27978242125502
H           -4.24231997933574       -6.20968570594203        2.45211669085134
H           -5.58325803062772       -4.27439875495768        1.70877009628764
H           -6.44326630781603       -1.96674777154137        0.84974620978469
H           -8.64472698795996        0.09389568180002        0.28598342275686
H           -9.89943205558598        2.08951332226661       -0.45351846394066
H           -8.74305403632594        3.99017640576102       -1.47473398370328
H           -6.29845493176876        3.96904510753058       -1.79478056590598
H           -3.84661308866833        4.09636900565451       -2.26818792232946
H           -1.47750515115286        4.39801704444209       -2.89361275130912
H            0.17011793141320        2.63744239461287       -2.44906009616462
H           -0.47444412596583        0.55056371911413       -1.34483052776427
