  78
       -129.28368796
 N         -1.9513999211        0.9415118545        2.4107138992
 C         -1.2051542497        0.3406801885        1.7783397491
 C         -0.2793905578       -0.4023617788        1.0161280080
 C          1.0398302341        0.0003296913        0.9611856801
 C          1.9867600440       -0.7345783824        0.2245052810
 C          3.3364954450       -0.3090385475        0.1577962452
 N          3.7304475723        0.8040057976        0.8238765254
 C          4.9818810506        1.1734860787        0.7461478654
 C          5.4126845464        2.3736334857        1.4547801136
 C          4.4971745146        3.1254056664        2.1917477763
 C          4.9125321825        4.2590050014        2.8605137301
 C          6.2405398397        4.6555312898        2.8034285259
 C          7.1546347148        3.9125047744        2.0723772217
 C          6.7465991746        2.7775805776        1.4002659589
 N          5.9027879263        0.4913442372        0.0404460713
 C          5.4745311987       -0.6070659517       -0.6092176603
 C          6.4467149955       -1.3641770327       -1.3895788358
 C          6.0489513959       -2.4888412410       -2.1131873996
 C          6.9733808896       -3.1992114630       -2.8515770310
 C          8.3014517314       -2.7993766601       -2.8773742497
 C          8.7027153157       -1.6832009738       -2.1595993979
 C          7.7834880942       -0.9669786181       -1.4191422929
 N          4.2325726018       -1.0142811502       -0.5736395313
 C          1.5551774687       -1.9068856317       -0.4478350924
 C          0.2476378193       -2.3109128966       -0.3874870107
 C         -0.6972860736       -1.5714091417        0.3304761789
 N         -2.0328591310       -1.9866234580        0.4092867874
 C         -2.4520279056       -3.1808924115        0.9645196060
 C         -1.6942204263       -4.2533040987        1.4094330735
 C         -2.3688569808       -5.3375657574        1.9414449489
 C         -3.7571631831       -5.3482206604        2.0368064110
 C         -4.5133018137       -4.2680289184        1.6139140578
 C         -3.8601570817       -3.1709549462        1.0746215508
 C         -4.3129512431       -1.8984060245        0.5694993919
 C         -5.6049376778       -1.3822842036        0.5017398319
 C         -5.7438537137       -0.0982018104       -0.0220929188
 C         -6.7464787008        0.8981899206       -0.3328095353
 C         -8.1219360766        0.9389586130       -0.1590559943
 C         -8.8152982537        2.0627830485       -0.5713070705
 C         -8.1561894854        3.1406592981       -1.1516850995
 C         -6.7827991526        3.1313214674       -1.3399765522
 C         -6.0794307854        2.0147032150       -0.9328584376
 N         -4.7250246963        1.7275764446       -0.9951546350
 C         -3.4785096942        2.1521968437       -1.4204157734
 C         -3.1047907309        3.3202026959       -2.0560934699
 C         -1.7751138485        3.4729323283       -2.4128241886
 C         -0.8446719099        2.4721052294       -2.1595151144
 C         -1.2059480884        1.2987599027       -1.5232450594
 C         -2.5233478935        1.1261183668       -1.1179010884
 C         -3.2374463289        0.0534896633       -0.4557772952
 C         -3.1252583242       -1.2101324289        0.1474444080
 C         -4.5555745797        0.4950414599       -0.4493048675
 H          1.3600714775        0.8870751611        1.4861296087
 H          3.4674076215        2.8049575042        2.2275778166
 H          4.2008944008        4.8384444881        3.4303471472
 H          6.5622492188        5.5429324023        3.3285402606
 H          8.1887474108        4.2219759808        2.0282346852
 H          7.4449057268        2.1883200686        0.8264119853
 H          5.0122527363       -2.7867855882       -2.0838920168
 H          6.6618826048       -4.0690578495       -3.4115253267
 H          9.0223592528       -3.3575844353       -3.4565236731
 H          9.7371708330       -1.3724843626       -2.1799667505
 H          8.0790244131       -0.0957329590       -0.8555290416
 H          2.2832016005       -2.4663551543       -1.0127518735
 H         -0.0802374121       -3.1937558810       -0.9173108870
 H         -0.6167277245       -4.2394289881        1.3507480732
 H         -1.8068321578       -6.1892955377        2.2934962812
 H         -4.2501640874       -6.2119014709        2.4570737162
 H         -5.5885328546       -4.2780319525        1.7055325972
 H         -6.4438550189       -1.9649684459        0.8476975318
 H         -8.6378156496        0.1050667578        0.2923833218
 H         -9.8861191293        2.1072176162       -0.4402601242
 H         -8.7247447564        4.0043820659       -1.4622520462
 H         -6.2810867356        3.9737377828       -1.7899166092
 H         -3.8286245283        4.0899183444       -2.2740481859
 H         -1.4600308436        4.3797793518       -2.9066545250
 H          0.1806763774        2.6115511846       -2.4670260094
 H         -0.4698953393        0.5285938071       -1.3581042352
