  78
       -129.36053231
 N         -1.9388900269        0.8411622583        2.3793055532
 C         -1.2173448895        0.2577718539        1.7061273580
 C         -0.2840474390       -0.4630800484        0.9253761846
 C          1.0375042373       -0.0315746376        0.8935771883
 C          1.9903632298       -0.7470745811        0.1794211129
 C          3.3764692783       -0.2792502141        0.1376890919
 N          3.6402444434        0.9142782838        0.6566643920
 C          4.9104592848        1.3076772276        0.5924990998
 C          5.2496206421        2.6200445493        1.1395149003
 C          4.2481007916        3.4482449620        1.6436181933
 C          4.5715649439        4.6873574076        2.1608785176
 C          5.8919256380        5.1096002348        2.1803602836
 C          6.8915670044        4.2900128629        1.6789801003
 C          6.5753120005        3.0499697614        1.1595216213
 N          5.8853707296        0.5763391283        0.0605067258
 C          5.5315990269       -0.6071288574       -0.4308927729
 C          6.5734597407       -1.4479875058       -1.0187385685
 C          6.2634756104       -2.7229305227       -1.4887301031
 C          7.2508398966       -3.5154360651       -2.0406309948
 C          8.5519268857       -3.0448066336       -2.1286132879
 C          8.8654895922       -1.7772624293       -1.6627161419
 C          7.8829689500       -0.9796469581       -1.1094240994
 N          4.2842287858       -1.0734423734       -0.4191184370
 C          1.6147879465       -1.9075233064       -0.4997958512
 C          0.3051798989       -2.3377233019       -0.4784928194
 C         -0.6646345430       -1.6232435036        0.2227697465
 N         -1.9857814949       -2.0588307330        0.2471077508
 C         -2.4013545962       -3.3029532081        0.7020212768
 C         -1.6473577254       -4.4097835113        1.0550919026
 C         -2.3212922685       -5.5306412923        1.5053069795
 C         -3.7085043842       -5.5461434313        1.6137878821
 C         -4.4593471944       -4.4326416672        1.2913020848
 C         -3.8053319312       -3.2960817588        0.8350400657
 C         -4.2667444286       -1.9884498654        0.4469546764
 C         -5.5703076436       -1.4808062195        0.4270422352
 C         -5.7244490266       -0.1686013456        0.0078390673
 C         -6.7396978868        0.8448913077       -0.2184288751
 C         -8.1110108638        0.8630399809       -0.0267162856
 C         -8.8176045555        2.0094978492       -0.3481883750
 C         -8.1731469700        3.1305489987       -0.8551978027
 C         -6.8022292938        3.1437399648       -1.0579091205
 C         -6.0878351300        2.0046863841       -0.7410210668
 N         -4.7310797355        1.7334980212       -0.8397947538
 C         -3.4954930065        2.1973025884       -1.2490537417
 C         -3.1411860252        3.4123164771       -1.8051064837
 C         -1.8208097703        3.6031325423       -2.1729407052
 C         -0.8806347524        2.5933336488       -2.0127453316
 C         -1.2234335824        1.3734918067       -1.4572500289
 C         -2.5286642998        1.1614762384       -1.0361165768
 C         -3.2258328773        0.0344145834       -0.4415972229
 C         -3.0971637132       -1.2588033805        0.0741190091
 C         -4.5468010178        0.4648817490       -0.3883890273
 H          1.3310716259        0.8591514249        1.4266923601
 H          3.2259234125        3.1047174496        1.6200011597
 H          3.7941701023        5.3273394797        2.5514947114
 H          6.1422388869        6.0788719987        2.5862513507
 H          7.9193709050        4.6218336626        1.6948731956
 H          7.3397336431        2.3975180498        0.7677869781
 H          5.2463401962       -3.0732450894       -1.4107089981
 H          7.0095289366       -4.5041767761       -2.4026536176
 H          9.3225362368       -3.6670483395       -2.5597275633
 H          9.8800437387       -1.4131851519       -1.7319248708
 H          8.1077496384        0.0095637840       -0.7429656843
 H          2.3657218500       -2.4486229979       -1.0532323289
 H          0.0088061540       -3.2182043640       -1.0284393607
 H         -0.5695161427       -4.4021943839        0.9944844143
 H         -1.7577248984       -6.4093994863        1.7812261661
 H         -4.2002832954       -6.4405041363        1.9660616710
 H         -5.5335220409       -4.4408257399        1.3949800633
 H         -6.3984329574       -2.1015540746        0.7299535897
 H         -8.6167395151       -0.0052123279        0.3683091357
 H         -9.8872971744        2.0352365776       -0.2025449696
 H         -8.7503647159        4.0107812595       -1.0964156360
 H         -6.3102845142        4.0199443663       -1.4509894937
 H         -3.8757748249        4.1882086428       -1.9547686236
 H         -1.5209879199        4.5458271147       -2.6056976180
 H          0.1373640463        2.7605278480       -2.3322006447
 H         -0.4793131007        0.5965889729       -1.3762096758
