  70
       -121.39437232
 O         -6.1751671824       -2.7646256908        0.4436975495
 N         -5.6972381432       -1.7683180352        0.9690634350
 O         -6.3384900666       -0.9745017425        1.6440265512
 C         -4.3161458838       -1.5156352116        0.7799009216
 C         -3.5472328801       -2.3882771764       -0.0003217992
 C         -2.2172585759       -2.1390258020       -0.1929341477
 C         -1.6013774076       -0.9942301204        0.3708096679
 C         -0.2467520088       -0.6795396160        0.0600957440
 C          0.2376389696        0.6754682298        0.0648164711
 C          1.5932064355        0.9862489292        0.3758427045
 C          2.2104016196        2.1333846202       -0.1816952805
 C          3.5409535773        2.3793122225        0.0106656780
 C          4.3100697336        1.4996162429        0.7827902395
 N          5.6920502323        1.7479934147        0.9701004622
 O          6.3358275270        0.9416209010        1.6277419600
 O          6.1684642791        2.7529766322        0.4600761847
 C          3.7150405577        0.3807533400        1.3750446426
 C          2.3839333692        0.1307326008        1.1790859967
 N         -0.6439511554        1.6844764020       -0.2521102341
 C         -0.7903224658        2.8876638009        0.4333897291
 C         -0.0975319121        3.3658397042        1.5356310781
 C         -0.4854177785        4.5858001762        2.0610639767
 C         -1.5381868431        5.3108785598        1.5123335518
 C         -2.2507593676        4.8233994775        0.4303736741
 C         -1.8793995239        3.6029876529       -0.1098361882
 C         -2.4106093378        2.7981235644       -1.1816479414
 C         -3.4530746928        2.9804530283       -2.0747134607
 C         -3.6958591589        1.9947051955       -3.0159457736
 C         -2.8972496979        0.8580569121       -3.0835547711
 C         -1.8473518513        0.6603147318       -2.2045699802
 C         -1.6255035141        1.6259031024       -1.2336178015
 N          0.6365886464       -1.6852171699       -0.2631744068
 C          0.7923578118       -2.8880316656        0.4208494577
 C          0.1036520489       -3.3722828975        1.5229530071
 C          0.5052524160       -4.5865518194        2.0512510282
 C          1.5667519181       -5.3005253098        1.5047903836
 C          2.2737032783       -4.8077455971        0.4215476278
 C          1.8889081140       -3.5927331365       -0.1213447551
 C          2.4142110978       -2.7821348249       -1.1917656099
 C          3.4602802736       -2.9531735955       -2.0828378092
 C          3.6970809659       -1.9626017476       -3.0205520889
 C          2.8892577004       -0.8324012486       -3.0868783143
 C          1.8351737952       -0.6463346622       -2.2104070083
 C          1.6190715023       -1.6167452013       -1.2430396925
 C         -2.3921417644       -0.1451176461        1.1807351379
 C         -3.7220786332       -0.3997267373        1.3787727355
 H         -4.0291733592       -3.2446561874       -0.4459696285
 H         -1.6333109070       -2.7991878292       -0.8167842399
 H          1.6266358020        2.7991557228       -0.7996842381
 H          4.0232352865        3.2385375588       -0.4292560735
 H          4.3230002247       -0.2649250621        1.9896776810
 H          1.9247364363       -0.7105978643        1.6751548935
 H          0.7160439404        2.8115653406        1.9762780133
 H          0.0419432131        4.9801779376        2.9158188090
 H         -1.8073910472        6.2619021042        1.9453026360
 H         -3.0828522794        5.3736830356        0.0199571653
 H         -4.0588500959        3.8721604547       -2.0363277784
 H         -4.5085226572        2.1121827563       -3.7159412487
 H         -3.0959296239        0.1146166303       -3.8399739073
 H         -1.2271613845       -0.2182627953       -2.2862722280
 H         -0.7166159436       -2.8263216386        1.9616745678
 H         -0.0173991607       -4.9847738842        2.9071145189
 H          1.8479952770       -6.2464567064        1.9412511873
 H          3.1126146483       -5.3490994358        0.0131341495
 H          4.0734808395       -3.8398198191       -2.0456595250
 H          4.5122598057       -2.0713263030       -3.7190020117
 H          3.0834106926       -0.0852732803       -3.8408675325
 H          1.2075589994        0.2270765356       -2.2911207882
 H         -1.9332976216        0.6939535245        1.6808117810
 H         -4.3297440472        0.2397683799        2.0001010218
  70
       -121.39426768
 O         -6.2681329408       -1.0718950636       -1.8008927625
 N         -5.6533672116       -1.8300646571       -1.0635537008
 O         -6.1488729281       -2.8043595770       -0.5143136409
 C         -4.2820071922       -1.5612471204       -0.8287660743
 C         -3.6668804592       -0.4735611717       -1.4573381507
 C         -2.3458674797       -0.2063895670       -1.2209144142
 C         -1.5846381853       -1.0155395607       -0.3439052288
 C         -0.2391050057       -0.6831104112       -0.0177388706
 C          0.2365123799        0.6764560880       -0.1004570670
 C          1.5773302160        0.9689278845       -0.4792852453
 C          2.2195236904        2.1461275642       -0.0216406617
 C          3.5388300566        2.3776142152       -0.2938161565
 C          4.2702205888        1.4522196929       -1.0487727145
 N          5.6398083189        1.6897081333       -1.3237568953
 O          6.2509333490        0.8451086387       -1.9637593501
 O          6.1378068114        2.7251277261       -0.9038572544
 C          3.6504727361        0.2975848553       -1.5378916883
 C          2.3314701608        0.0613870495       -1.2609902833
 N         -0.6431272280        1.6886687613        0.2080537567
 C         -1.5972473480        1.6460913976        1.2183473446
 C         -1.7893622508        0.7001270284        2.2147220794
 C         -2.8126910419        0.9142644014        3.1208567859
 C         -3.6153146267        2.0479768813        3.0546805905
 C         -3.4036800927        3.0134359498        2.0855742191
 C         -2.3880801408        2.8142720107        1.1654130281
 C         -1.8925290529        3.5980871822        0.0617996048
 C         -2.2858844765        4.8060806586       -0.4906055552
 C         -1.6096355867        5.2743659930       -1.6036512559
 C         -0.5724520547        4.5411583015       -2.1708878264
 C         -0.1631522511        3.3333869206       -1.6335753683
 C         -0.8174661529        2.8756211616       -0.4995423407
 N          0.6442744046       -1.6542008403        0.3942907867
 C          1.6155745865       -1.4953145827        1.3763014230
 C          1.8247511590       -0.4395290527        2.2516122231
 C          2.8654541741       -0.5466986651        3.1568434657
 C          3.6683203786       -1.6809333018        3.2087628569
 C          3.4394573024       -2.7533536191        2.3640256933
 C          2.4066279022       -2.6624294660        1.4460554659
 C          1.8928571216       -3.5690604911        0.4501166039
 C          2.2784337803       -4.8333422669        0.0352750613
 C          1.5844981336       -5.4271479353       -1.0045447806
 C          0.5374157361       -4.7638006888       -1.6358584603
 C          0.1356713325       -3.5015082035       -1.2356722288
 C          0.8077932925       -2.9157502580       -0.1732608518
 C         -2.2228027198       -2.1285922886        0.2572992530
 C         -3.5444682120       -2.3896270330        0.0262738986
 H         -4.2507936350        0.1339678074       -2.1313571539
 H         -1.8684900855        0.6090931771       -1.7424105882
 H          1.6658620651        2.8490814872        0.5825213454
 H          4.0412033753        3.2608330335        0.0693992034
 H          4.2293513489       -0.3865027619       -2.1389283244
 H          1.8504535654       -0.8104867780       -1.6772404350
 H         -1.1662730362       -0.1760080040        2.2980233164
 H         -2.9857678851        0.1863081489        3.8983797204
 H         -4.4055793081        2.1793276155        3.7774885769
 H         -4.0123496607        3.9031139492        2.0466201624
 H         -3.1073817455        5.3609433941       -0.0652666107
 H         -1.8962791912        6.2154482763       -2.0470012898
 H         -0.0745086622        4.9194138691       -3.0502205298
 H          0.6378175173        2.7732396427       -2.0896137567
 H          1.2023152266        0.4409250528        2.2434251406
 H          3.0523755189        0.2674022333        3.8400097321
 H          4.4729091484       -1.7268703862        3.9261964421
 H          4.0486149009       -3.6419130101        2.4179704405
 H          3.1070680703       -5.3359460824        0.5089202070
 H          1.8643269356       -6.4138560802       -1.3398678491
 H          0.0254484922       -5.2411004563       -2.4570244684
 H         -0.6730937235       -2.9975203976       -1.7407289729
 H         -1.6637970702       -2.7546171395        0.9365278146
 H         -4.0436651792       -3.2224710723        0.4969500848
  70
       -121.39376576
 O         -6.4557579234       -0.9886469865       -1.0841901064
 N         -5.7577326231       -1.7578353889       -0.4365819045
 O         -6.1929986344       -2.7092376374        0.1986503773
 C         -4.3606762163       -1.5288460679       -0.4153918703
 C         -3.8145256157       -0.4671972584       -1.1447852448
 C         -2.4697291171       -0.2193815984       -1.0885807341
 C         -1.6166213984       -1.0162229516       -0.2894250049
 C         -0.2464210142       -0.6816368133       -0.0739704237
 C          0.2356451772        0.6669772441       -0.1490626660
 C          1.6044407544        0.9740921441       -0.4114894633
 C          2.1803182799        2.1433248014        0.1444722254
 C          3.5243485530        2.3743628548        0.0574277665
 C          4.3488131662        1.4594688388       -0.6097308754
 N          5.7465824488        1.6785104982       -0.6632928800
 O          6.4368075939        0.8448717002       -1.2350339415
 O          6.1905238705        2.6857245395       -0.1279512384
 C          3.7931664717        0.3322570006       -1.2244891219
 C          2.4480043196        0.0971756126       -1.1329651110
 N         -0.6521077682        1.6991956839        0.0657207084
 C         -1.6539689034        1.7359881265        1.0263597600
 C         -1.8939694306        0.8709908822        2.0838211123
 C         -2.9652420578        1.1495138001        2.9136036606
 C         -3.7659498271        2.2691677663        2.7134717548
 C         -3.5027386368        3.1594551051        1.6862435306
 C         -2.4382812819        2.8952964766        0.8410074057
 C         -1.8791312257        3.5951688590       -0.2891635549
 C         -2.2330226367        4.7580913375       -0.9536075404
 C         -1.4871212175        5.1427862888       -2.0547807597
 C         -0.4169977278        4.3730174569       -2.4994248368
 C         -0.0468036883        3.2084165099       -1.8501369230
 C         -0.7759029738        2.8333274714       -0.7315678994
 N          0.6467850739       -1.6833329046        0.2408598282
 C          1.6612172114       -1.6102873583        1.1862029177
 C          1.9050064825       -0.6371070610        2.1441121152
 C          2.9918268064       -0.8151627702        2.9811972852
 C          3.8039887279       -1.9404445469        2.8860453956
 C          3.5364026138       -2.9367972798        1.9626187088
 C          2.4560925449       -2.7746396995        1.1117429899
 C          1.8889720865       -3.5949069408        0.0699634116
 C          2.2459008978       -4.8185568587       -0.4726146974
 C          1.4888633657       -5.3248478989       -1.5154637062
 C          0.4048789119       -4.6160874727       -2.0234124693
 C          0.0315328156       -3.3923569813       -1.4959583249
 C          0.7716491333       -2.8942134020       -0.4341114772
 C         -2.1836444050       -2.1246153021        0.3874032544
 C         -3.5272228394       -2.3683980399        0.3345579536
 H         -4.4724912915        0.1385722212       -1.7483966380
 H         -2.0517853291        0.5745294802       -1.6884873301
 H          1.5526453576        2.8334400416        0.6883831977
 H          3.9755314438        3.2447815775        0.5081099269
 H          4.4439135060       -0.3336434774       -1.7697342017
 H          2.0219505682       -0.7509915070       -1.6468196498
 H         -1.2717739182        0.0085108342        2.2642863991
 H         -3.1802711041        0.4842270017        3.7354478499
 H         -4.5966537473        2.4504482219        3.3776892209
 H         -4.1095527400        4.0402139088        1.5461120101
 H         -3.0772469911        5.3427923401       -0.6234447212
 H         -1.7434445606        6.0473916656       -2.5843615880
 H          0.1378471371        4.6878857985       -3.3696828773
 H          0.7816106552        2.6177646448       -2.2084652807
 H          1.2738845671        0.2320105776        2.2437706442
 H          3.2102511394       -0.0653257411        3.7257014698
 H          4.6473442685       -2.0412327309        3.5513957613
 H          4.1525636800       -3.8203363003        1.9054722156
 H          3.1004957386       -5.3573599267       -0.0944789093
 H          1.7469086553       -6.2786086958       -1.9494077083
 H         -0.1586276411       -5.0265476161       -2.8470215626
 H         -0.8076510683       -2.8504356600       -1.9029616690
 H         -1.5488800798       -2.7536984770        0.9935624712
 H         -3.9711291169       -3.1898837602        0.8753247404
