  70
       -121.39437232
 O         -6.1751671824       -2.7646256908        0.4436975495
 N         -5.6972381432       -1.7683180352        0.9690634350
 O         -6.3384900666       -0.9745017425        1.6440265512
 C         -4.3161458838       -1.5156352116        0.7799009216
 C         -3.5472328801       -2.3882771764       -0.0003217992
 C         -2.2172585759       -2.1390258020       -0.1929341477
 C         -1.6013774076       -0.9942301204        0.3708096679
 C         -0.2467520088       -0.6795396160        0.0600957440
 C          0.2376389696        0.6754682298        0.0648164711
 C          1.5932064355        0.9862489292        0.3758427045
 C          2.2104016196        2.1333846202       -0.1816952805
 C          3.5409535773        2.3793122225        0.0106656780
 C          4.3100697336        1.4996162429        0.7827902395
 N          5.6920502323        1.7479934147        0.9701004622
 O          6.3358275270        0.9416209010        1.6277419600
 O          6.1684642791        2.7529766322        0.4600761847
 C          3.7150405577        0.3807533400        1.3750446426
 C          2.3839333692        0.1307326008        1.1790859967
 N         -0.6439511554        1.6844764020       -0.2521102341
 C         -0.7903224658        2.8876638009        0.4333897291
 C         -0.0975319121        3.3658397042        1.5356310781
 C         -0.4854177785        4.5858001762        2.0610639767
 C         -1.5381868431        5.3108785598        1.5123335518
 C         -2.2507593676        4.8233994775        0.4303736741
 C         -1.8793995239        3.6029876529       -0.1098361882
 C         -2.4106093378        2.7981235644       -1.1816479414
 C         -3.4530746928        2.9804530283       -2.0747134607
 C         -3.6958591589        1.9947051955       -3.0159457736
 C         -2.8972496979        0.8580569121       -3.0835547711
 C         -1.8473518513        0.6603147318       -2.2045699802
 C         -1.6255035141        1.6259031024       -1.2336178015
 N          0.6365886464       -1.6852171699       -0.2631744068
 C          0.7923578118       -2.8880316656        0.4208494577
 C          0.1036520489       -3.3722828975        1.5229530071
 C          0.5052524160       -4.5865518194        2.0512510282
 C          1.5667519181       -5.3005253098        1.5047903836
 C          2.2737032783       -4.8077455971        0.4215476278
 C          1.8889081140       -3.5927331365       -0.1213447551
 C          2.4142110978       -2.7821348249       -1.1917656099
 C          3.4602802736       -2.9531735955       -2.0828378092
 C          3.6970809659       -1.9626017476       -3.0205520889
 C          2.8892577004       -0.8324012486       -3.0868783143
 C          1.8351737952       -0.6463346622       -2.2104070083
 C          1.6190715023       -1.6167452013       -1.2430396925
 C         -2.3921417644       -0.1451176461        1.1807351379
 C         -3.7220786332       -0.3997267373        1.3787727355
 H         -4.0291733592       -3.2446561874       -0.4459696285
 H         -1.6333109070       -2.7991878292       -0.8167842399
 H          1.6266358020        2.7991557228       -0.7996842381
 H          4.0232352865        3.2385375588       -0.4292560735
 H          4.3230002247       -0.2649250621        1.9896776810
 H          1.9247364363       -0.7105978643        1.6751548935
 H          0.7160439404        2.8115653406        1.9762780133
 H          0.0419432131        4.9801779376        2.9158188090
 H         -1.8073910472        6.2619021042        1.9453026360
 H         -3.0828522794        5.3736830356        0.0199571653
 H         -4.0588500959        3.8721604547       -2.0363277784
 H         -4.5085226572        2.1121827563       -3.7159412487
 H         -3.0959296239        0.1146166303       -3.8399739073
 H         -1.2271613845       -0.2182627953       -2.2862722280
 H         -0.7166159436       -2.8263216386        1.9616745678
 H         -0.0173991607       -4.9847738842        2.9071145189
 H          1.8479952770       -6.2464567064        1.9412511873
 H          3.1126146483       -5.3490994358        0.0131341495
 H          4.0734808395       -3.8398198191       -2.0456595250
 H          4.5122598057       -2.0713263030       -3.7190020117
 H          3.0834106926       -0.0852732803       -3.8408675325
 H          1.2075589994        0.2270765356       -2.2911207882
 H         -1.9332976216        0.6939535245        1.6808117810
 H         -4.3297440472        0.2397683799        2.0001010218
