61
 energy: -90.958505457553 gnorm: 0.000038423112 xtb: 6.7.1 (edcfbbe)
C            3.63536801253608       -2.51690633749655       -0.03157077334592
C            2.94844965836884       -1.24446420033058        0.35140957806772
C            1.66444397831782       -1.26622355149069        0.86592636616211
C            0.99405119871022       -0.09169850067376        1.20917333107808
N           -0.31777264321087       -0.12699685189440        1.65940046511349
C           -1.11030706674372        1.04210450110683        1.70384675904521
C           -0.88183151376700        2.03114424540547        2.64975683259284
C           -1.70110624537025        3.14550470314975        2.68644482298417
C           -2.74994590343650        3.26471616676217        1.79092246317543
C           -2.99100381733725        2.26813433232856        0.85906105126636
C           -2.18016447561584        1.14678563626200        0.81209872533096
C           -2.31433609480565        0.01115810541513       -0.19143792024100
C           -1.11168423640832        0.08779975910217       -1.13265278867199
C           -0.53274107694371       -1.06903460663184       -1.63999601933826
C            0.60170089072284       -1.00165720611626       -2.42857909142268
C            1.17048724453363        0.22307726548282       -2.72960313562942
C            0.57856911007268        1.38209107829375       -2.25984999278113
C           -0.55558105613326        1.31561605715855       -1.47096922495830
C           -3.63279257607716        0.06489805072849       -0.93068657052869
C           -3.70504800191562        0.16672069466628       -2.31215289225428
C           -4.93443038681130        0.21276468501875       -2.94911020421818
C           -6.10507216010399        0.15762958742267       -2.21472020885863
C           -6.04230871521246        0.05543723550633       -0.83440605539486
C           -4.81646621962041        0.00938505100286       -0.19833168805373
C           -2.17630431046893       -1.26295759003415        0.62817453577804
C           -2.98454515200751       -2.38034015084216        0.50456641190456
C           -2.74315558243377       -3.50484272488780        1.27714779151432
C           -1.69717862406091       -3.51864025609591        2.18371951309374
C           -0.88036414052520       -2.40970981031765        2.31637892420489
C           -1.10825236972038       -1.29104112207721        1.52789020162913
C            1.65456982856232        1.12377051158778        1.02703939779670
C            2.93810643618237        1.18197147552594        0.51432736719321
C            3.61328257181031        2.50005793741005        0.30380070159899
C            3.56812148546768       -0.01184543803305        0.18353131503435
Br           5.32882087208632        0.04544661119047       -0.55726055012098
H            4.56336050078664       -2.63418352955359        0.52823055535615
H            3.89091348241942       -2.50553288551748       -1.09115397120654
H            2.99676141927874       -3.37401186713737        0.16510546302874
H            1.16785963597979       -2.21817070408174        0.96488753119244
H           -0.06788310569864        1.91971129375777        3.35048498941134
H           -1.52153325671843        3.91909883626630        3.41788656275584
H           -3.38476592244569        4.13760158376874        1.81495647128230
H           -3.80515038526281        2.37417225176499        0.15761784027716
H           -0.96512681620489       -2.03205388107622       -1.40967481387484
H            1.04609349168483       -1.91240888774504       -2.80233913806389
H            2.06601078221273        0.27429369305310       -3.33082792684733
H            1.00463905069497        2.34484857528716       -2.50116743572958
H           -1.00624689133586        2.22787108620321       -1.10745737627327
H           -2.79896485408681        0.21053816652036       -2.89810449910409
H           -4.97412089293372        0.29225629019430       -4.02564860724937
H           -7.06237779202727        0.19385806133450       -2.71325975944621
H           -6.95107877730300        0.01149715755365       -0.25197122214462
H           -4.77054126773902       -0.07064141280344        0.87894494196768
H           -3.79704762409748       -2.38160102903270       -0.20670619434804
H           -3.37591002866253       -4.37277886614145        1.16847715626734
H           -1.51795437673859       -4.39233726314977        2.79219781024116
H           -0.06944754227837       -2.40253342415359        3.02933181586042
H            1.14997212288458        2.04957560571623        1.25273842623794
H            3.86590947844234        2.63232170226824       -0.74827768080509
H            4.54175516123530        2.54977638965336        0.87280058501272
H            2.96783696671914        3.31756707321435        0.61399690192770
