61
 energy: -90.955118334708 gnorm: 0.000054005604 xtb: 6.7.1 (edcfbbe)
C            5.36590035666658        2.51566866572253        0.07824137714672
C            4.61792911112811        1.22250940078648        0.03789121261671
C            3.23039846577532        1.20173549052226        0.03724080916475
C            2.53834842258488       -0.00002157694797        0.00000359489637
N            1.11674673442937        0.00001737761146        0.00000274644949
C            0.44542091770344       -0.04959482999999        1.21037269162458
C            1.16935873647215       -0.09803757000848        2.40499348485569
C            0.52437169258290       -0.12011577417807        3.62384776997864
C           -0.85794913353222       -0.08662000848799        3.67543702161084
C           -1.57778711729196       -0.04368233949604        2.49622602021548
C           -0.95148972659741       -0.03217473482452        1.25842748012331
C           -1.80439882367122        0.00004250099875        0.00000079716946
C           -2.63102451881549        1.28024465164059       -0.03053693212048
C           -3.86820604346413        1.35232127927278       -0.66035816696906
C           -4.55915769719443        2.54945912670054       -0.72738479325222
C           -4.02261750973592        3.69900369138870       -0.17549972668991
C           -2.78346041019609        3.64264380487554        0.43769402857031
C           -2.09385859444752        2.44588152546122        0.50425001937275
C           -2.63090124560204       -1.28024137923113        0.03053879357514
C           -3.86804148779663       -1.35245056327857        0.66042693257704
C           -4.55888421784901       -2.54965100742315        0.72745047468765
C           -4.02227441238823       -3.69912913916597        0.17549439839219
C           -2.78315702245293       -3.64263774595365       -0.43776680494305
C           -2.09366375923647       -2.44581218371900       -0.50431952815620
C           -0.95148830190256        0.03233697790242       -1.25842294301966
C           -1.57778504081770        0.04393726261858       -2.49622083297776
C           -0.85794488386729        0.08690929695390       -3.67542934019863
C            0.52437714814724        0.12034461026717       -3.62383809009277
C            1.16936296617200        0.09818133546098       -2.40498468115566
C            0.44542333265904        0.04970689453915       -1.21036598485907
C            3.23032611243947       -1.20181953184035       -0.03723937729429
C            4.61785570447546       -1.22267645850810       -0.03789717669948
C            5.36574886017786       -2.51588077310989       -0.07824878403997
C            5.28291078103060       -0.00010359172215       -0.00000183538829
Br           7.19415432473921       -0.00015946984644       -0.00000876926066
H            6.00640008456304        2.55798358687698        0.95921084064198
H            4.67878669122265        3.35687216469535        0.10379853399712
H            6.00733407081485        2.61236571749107       -0.79773063821011
H            2.67850795157730        2.12930367183849        0.06465988240631
H            2.24826846058797       -0.11442175061871        2.37235143472158
H            1.10543137829251       -0.15788288748520        4.53322059479430
H           -1.37210459341215       -0.09349447675732        4.62403177588475
H           -2.65504198332270       -0.01165242925610        2.53705474788587
H           -4.30915477487346        0.46861906179792       -1.09787626538676
H           -5.52251605679877        2.58203090450600       -1.21566147346734
H           -4.56394653322615        4.63213290893567       -0.22690678944015
H           -2.34913404447755        4.53486640918656        0.86501213723760
H           -1.12546861833953        2.41742885271839        0.98283591296110
H           -4.30904538441788       -0.46880376386190        1.09800009044899
H           -5.52221360051578       -2.58232375508409        1.21577740362928
H           -4.56352006861466       -4.63230699531759        0.22689551830361
H           -2.34877752915612       -4.53480601515671       -0.86514477271006
H           -1.12530469921080       -2.41725992269686       -0.98296149690473
H           -2.65504131820971        0.01195369158515       -2.53705130038774
H           -1.37209978365867        0.09385279682327       -4.62402379747915
H            1.10543875919021        0.15813193457923       -4.53320882633411
H            2.24827309990137        0.11452177754539       -2.37234218909526
H            2.67837968440530       -2.12935435877354       -0.06465799908150
H            4.67858437282757       -3.35704303697470       -0.10379620604788
H            6.00718656452428       -2.61261390641761        0.79771632005712
H            6.00623614997622       -2.55823639518178       -0.95922532433994
