61
 energy: -90.846800758293 gnorm: 0.000069605980 xtb: 6.7.1 (edcfbbe)
C            3.92732762086695       -2.55380383106054        0.39413083327967
C            3.17275831890398       -1.29451420536977        0.67422102070861
C            1.82104997468499       -1.28812080948624        0.80047276939187
C            1.09470982030152       -0.07491889880543        1.05686376770265
N           -0.24925403232040       -0.09210815246376        1.25356851033630
C           -1.03556507230023        1.04972489571679        1.43298916695026
C           -0.73961040281952        2.02237621139265        2.39571190235036
C           -1.58013465611996        3.10019544814680        2.55653811186088
C           -2.72058167504069        3.22774013240482        1.76708990603972
C           -3.03440903986409        2.24596788913215        0.83148104293193
C           -2.21950528601686        1.14811547157838        0.66737859375832
C           -2.43148527923357        0.02206250168349       -0.32850194437183
C           -1.30808233649709        0.09928968368552       -1.36479393373577
C           -0.77747710245495       -1.05943095167615       -1.91865399852159
C            0.29288569364063       -0.99522177813677       -2.79220415367092
C            0.84446603160313        0.22826322379378       -3.12995256074125
C            0.30134095085029        1.38899068669622       -2.60760591595478
C           -0.76922785838802        1.32564325877737       -1.73415667809946
C           -3.80391015943452        0.06746425849464       -0.96073266358783
C           -3.98194782099418        0.17206959540503       -2.33256121884889
C           -5.25602627770716        0.21129748797418       -2.87470558290454
C           -6.36734073564617        0.14664671973962       -2.05403273917310
C           -6.19909537892440        0.04228940954203       -0.68287863014323
C           -4.92831982168273        0.00313050110330       -0.14115260607604
C           -2.21557224251691       -1.23853628677723        0.48958461578246
C           -3.02619918999201       -2.35166525400335        0.48865226699463
C           -2.70728739794628       -3.46101962076477        1.26678537296640
C           -1.56561209213116       -3.44879732343549        2.06468806105107
C           -0.72926524357058       -2.35589070480826        2.06583520459072
C           -1.03083996050853       -1.25100056167870        1.26024122388845
C            1.81811627123670        1.16504081219441        0.99111888873059
C            3.16985066835122        1.19404132303738        0.86828104397741
C            3.92151081235024        2.48330396121737        0.78785157482556
C            3.87528445348230       -0.05067554554794        0.78748321260199
Br           5.75339061631722       -0.03535000238849        0.61928130686798
H            4.65322969191796       -2.74872429428891        1.18413219184485
H            4.47702856611382       -2.46988858624439       -0.54388995687446
H            3.24798737317509       -3.39941988078458        0.32662407553270
H            1.26934314691788       -2.20411156900920        0.66492342281441
H            0.12947246144404        1.89827630641561        3.02441879855719
H           -1.35421217552796        3.84913558280464        3.30053861412264
H           -3.36720071717594        4.08299632161550        1.88381462889570
H           -3.91945257796867        2.35411725514654        0.22230793934433
H           -1.19994629632566       -2.01948932121994       -1.65888105095810
H            0.70078166042546       -1.90615928928462       -3.20529134610158
H            1.68940896433748        0.27717714754279       -3.80057065037000
H            0.71600233797188        2.34973189244278       -2.87565951772342
H           -1.18513192797051        2.23734697595918       -1.32982721460682
H           -3.12365202978479        0.22362665960702       -2.98590020927744
H           -5.37739240536657        0.29294875049128       -3.94501529060635
H           -7.35990681797936        0.17736847259024       -2.47859988045468
H           -7.06085060124790       -0.00868820250435       -0.03335828990841
H           -4.80092944599267       -0.07807890860536        0.92920873560633
H           -3.91177742307607       -2.37104737310514       -0.12899865475745
H           -3.35071283324168       -4.32651687321072        1.25523330278844
H           -1.33546698484287       -4.29989354075978        2.68771740443653
H            0.14091065269455       -2.32405589423992        2.70440413420309
H            1.26443342669228        2.08976518698564        0.99893955385491
H            4.47176300877675        2.54758163923053       -0.15139066942762
H            4.64666367336699        2.55463988615339        1.59908604919411
H            3.24020986960041        3.32759100795204        0.85223456775118
