61
 energy: -90.846861240020 gnorm: 0.000057787635 xtb: 6.7.1 (edcfbbe)
C            4.44202196121157        1.83603915482744       -1.89066464176542
C            3.67882191626346        0.96354805651194       -0.94724201930153
C            2.29850331223833        0.97065049368912       -0.93270024699337
C            1.58972571916426        0.16113292092100       -0.04355476250909
N            0.17049746501452        0.17430830695732       -0.04198786761924
C           -0.47784424652268        0.72746178646942        1.03248381059337
C            0.25524222231400        1.36504986903192        2.06111722195052
C           -0.37771094918429        1.88720271856126        3.15379732948970
C           -1.77529741608543        1.80736928588708        3.26528796220735
C           -2.50909932753275        1.21964228885985        2.24610704323429
C           -1.90305449678067        0.69579482975381        1.12152330262280
C           -2.72181114836437        0.06158499539765        0.03012125419139
C           -3.92725289966714        0.95089328509295       -0.21182160697627
C           -3.78132953370577        2.07019334454756       -1.02358262972679
C           -4.83956472908337        2.93474379167398       -1.23079033477261
C           -6.06111763649981        2.69830747308439       -0.62130793795886
C           -6.20902893820369        1.59883728520264        0.20527366852875
C           -5.14905334065822        0.73320434463661        0.41432776878332
C           -3.07506031374525       -1.38236944744499        0.39732048550190
C           -4.13842652092470       -2.03677986696237       -0.22581907129852
C           -4.42382483647866       -3.35476636929630        0.06648966985775
C           -3.64415433330094       -4.05988731336983        0.97119280194823
C           -2.57528859713396       -3.42347613601678        1.58174871280703
C           -2.29167150638170       -2.10179837532328        1.29890240336388
C           -1.92726480029278       -0.18113683703337       -1.22059927655616
C           -2.53208192352823       -0.44154813658740       -2.43982260728077
C           -1.81269763115740       -0.89607940988389       -3.52460820270681
C           -0.42449343341763       -1.17921767943988       -3.38433734931904
C            0.21363649237255       -0.89473900266501       -2.21552166886803
C           -0.48588975602588       -0.31402679767593       -1.13177087973363
C            2.27612673738163       -0.67606209720285        0.84084122737702
C            3.65642782513940       -0.71418327117362        0.84779076272609
C            4.39439082961818       -1.61303937453375        1.78686426231979
C            4.34147055564252        0.11304756263783       -0.05029236867365
Br           6.24859008814562        0.08105426935137       -0.05631000516143
H            5.09390397200388        2.51483070793939       -1.34045430591931
H            3.76467452972343        2.42206769610825       -2.50598178489419
H            5.07380190379736        1.23161230902254       -2.54183980983827
H            1.75384242336863        1.61384545379590       -1.60764740534421
H            1.32777298958019        1.44040558226204        1.97265326705060
H            0.19642497940213        2.36782203788441        3.93089363984089
H           -2.27526350593132        2.21693053382058        4.12798100636451
H           -3.58419911338202        1.17794079800926        2.32983863254615
H           -2.82927123219167        2.26100929265099       -1.49852285007753
H           -4.71032351096418        3.79689831128817       -1.86855934803950
H           -6.88997822096078        3.37068215354354       -0.78563351713392
H           -7.15408044953508        1.41232021844577        0.69452902569694
H           -5.27747577964472       -0.11828025583361        1.06709659313168
H           -4.75043271981664       -1.51063237270288       -0.94221723325190
H           -5.25793908907121       -3.83905550758856       -0.42022070678456
H           -3.86552392172087       -5.09248839439579        1.19440770265964
H           -1.95886241909663       -3.96004066055340        2.28859968536354
H           -1.46198893665395       -1.62278422682107        1.79764150028851
H           -3.59622460294636       -0.28540531637819       -2.53950305576651
H           -2.30019074758419       -1.07247689934019       -4.46970211462514
H            0.11264572181970       -1.62044449325480       -4.20860740437836
H            1.26709883981725       -1.10386962592411       -2.10612746414140
H            1.71449628674200       -1.30303591570502        1.51691659788074
H            5.05005518588684       -1.03098639814821        2.43472122918919
H            5.01957803041035       -2.31288011016374        1.23226264782588
H            3.70111766973626       -2.17668173652859        2.40534175843057
