  65
  -106.492778070000        1.00000000000000      !
 C         -3.6098976879        0.0557095714       -1.8202739958
 C         -2.3412297656        0.6110689117       -1.9666037931
 C         -1.2028734387       -0.0990847614       -1.6208968375
 C         -1.3635249779       -1.3881226130       -1.1331217358
 C         -2.6545322915       -1.9467548452       -0.9486975865
 C         -3.7797603691       -1.2177057101       -1.3044359069
 C         -2.4583945289       -3.2365003171       -0.3515780702
 C         -3.3195677952       -4.2479629397        0.0494903667
 C         -2.7797293405       -5.4081462077        0.5760974949
 C         -1.4001336530       -5.5757079381        0.6892673592
 C         -0.5214121005       -4.5802391389        0.3005421408
 C         -1.0567859504       -3.4008212438       -0.1995558162
 N         -0.4112245842       -2.2781950492       -0.6769840250
 C          0.9511545695       -2.0180225343       -0.6125674455
 C          1.6673718307       -2.2536799520        0.5797295507
 C          2.9645669972       -1.8347415161        0.6930434861
 C          3.6047620409       -1.1978138752       -0.3853892654
 C          2.9238160678       -1.0581574596       -1.6087133798
 C          1.6203715812       -1.4555741923       -1.7198813534
 S          4.8701478890       -0.0133044865       -0.0011162988
 O          5.6191992719        0.3668354041       -1.1749086515
 O          5.6116726242       -0.4008246846        1.1751754014
 C          3.6150368559        1.1820871051        0.3822329194
 C          2.9774535865        1.8231482162       -0.6954354647
 C          1.6826314152        2.2488856290       -0.5807509481
 C          0.9660906169        2.0163641832        0.6120810147
 C          1.6336354049        1.4509829208        1.7190869809
 C          2.9347658721        1.0468932659        1.6066125063
 N         -0.3951352899        2.2815880050        0.6771388871
 C         -1.3503302053        1.3960246929        1.1355921388
 C         -1.1942995037        0.1073218622        1.6259934438
 C         -2.3349624102       -0.5974905998        1.9745964771
 C         -3.6016885416       -0.0374036034        1.8286745390
 C         -3.7671436371        1.2353071816        1.3097788085
 C         -2.6394859486        1.9589702662        0.9508150167
 C         -2.4390863624        3.2465746336        0.3504960381
 C         -3.2968655354        4.2598975814       -0.0530029789
 C         -2.7530954630        5.4174405115       -0.5815627149
 C         -1.3729992236        5.5805310256       -0.6940924483
 C         -0.4975755275        4.5827358353       -0.3034950935
 C         -1.0369160673        3.4058441863        0.1979881864
 H         -4.4739093613        0.6369308989       -2.1040710776
 H         -2.2429961354        1.6161728054       -2.3482092185
 H         -0.2230129922        0.3434522818       -1.7114781347
 H         -4.7663142075       -1.6351366918       -1.1750945992
 H         -4.3872507031       -4.1316260305       -0.0556837582
 H         -3.4340530502       -6.2060389541        0.8931273077
 H         -1.0095186002       -6.5020518369        1.0816320392
 H          0.5457561575       -4.7255234602        0.3676210066
 H          1.1602482861       -2.7029166523        1.4203785462
 H          3.5166958743       -1.9532289658        1.6111522294
 H          3.4534917027       -0.6222246033       -2.4401625962
 H          1.0934880580       -1.3680202513       -2.6582966397
 H          3.5290780890        1.9390994405       -1.6141855657
 H          1.1770679943        2.7006415494       -1.4209750969
 H          1.1075683514        1.3673239435        2.6582827058
 H          3.4635285551        0.6082411762        2.4371748854
 H         -0.2161059131       -0.3389170313        1.7163534582
 H         -2.2403095375       -1.6020776090        2.3584655260
 H         -4.4675604387       -0.6145471202        2.1150528352
 H         -4.7521896727        1.6561087865        1.1798770865
 H         -4.3649751306        4.1472495185        0.0518786184
 H         -3.4048803649        6.2166922102       -0.9003765868
 H         -0.9789997482        6.5049890482       -1.0875127950
 H          0.5700439994        4.7247568931       -0.3704150141
