  54
        -81.23025794
 C         -5.4092435085        1.0855913510        0.1881248661
 C         -4.6370257287        1.3836290054        1.3036433181
 C         -3.3453986223        0.9166071154        1.4068772123
 C         -2.7911973486        0.1354820972        0.3813924417
 N         -1.4857890480       -0.3349633182        0.4869091639
 C         -0.5374017985        0.4185326097        1.1911275015
 C          0.3676771008       -0.2276070647        2.0437245999
 C          1.3362295967        0.5010074438        2.7013370933
 C          1.4175070572        1.8746529994        2.5327857324
 C          0.5100140546        2.5211189305        1.7012438285
 C         -0.4617252831        1.8049176685        1.0354059866
 C         -1.1288928624       -1.5647734944       -0.0353589581
 C         -2.0192981606       -2.6500881412        0.0193575564
 C         -1.6250005029       -3.9175191767       -0.3100821609
 C         -0.2883953488       -4.1616987911       -0.7280144179
 C          0.6025378811       -3.1250767747       -0.8081032617
 C          0.2256466765       -1.8088083656       -0.5118749173
 N          1.1117421413       -0.7751906937       -0.7333904965
 C          0.8251535135        0.4316767255       -1.3462767695
 C         -0.3006046571        0.8102710997       -2.0552365273
 C         -0.3272901693        2.0789593851       -2.6151650095
 C          0.7598287974        2.9482271463       -2.4731179227
 C          1.9044552736        2.5657535579       -1.8057161472
 C          1.9611906445        1.2885822911       -1.2462913197
 C          2.9664794311        0.5563941535       -0.5560517033
 C          4.2559745127        0.8652539885       -0.1237799094
 C          4.9593657029       -0.0800330276        0.6007180391
 C          4.4003124408       -1.3146822654        0.9158466372
 C          3.1165481914       -1.6491608660        0.4882815895
 C          2.4189270989       -0.7227923583       -0.2591320336
 C         -3.5794348313       -0.1680271293       -0.7376022602
 C         -4.8686068138        0.3069407890       -0.8293553148
 H         -6.4213615732        1.4512129852        0.1130856845
 H         -5.0531187263        1.9789402229        2.1029735107
 H         -2.7543964072        1.1327425461        2.2842637770
 H          0.2901083707       -1.2960977613        2.1836857780
 H          2.0321761204       -0.0058525399        3.3526685965
 H          2.1816662669        2.4388576691        3.0437813457
 H          0.5695712543        3.5899673419        1.5640589450
 H         -1.1502682025        2.3020658753        0.3686875647
 H         -3.0223751359       -2.4735316045        0.3805564182
 H         -2.3180957836       -4.7399793447       -0.2349728574
 H          0.0096129752       -5.1609548027       -1.0019540813
 H          1.6034886765       -3.2967416268       -1.1756385392
 H         -1.1325157286        0.1363127207       -2.1880609823
 H         -1.1951913774        2.3958782269       -3.1725466680
 H          0.7006793123        3.9338007193       -2.9119470305
 H          2.7470136784        3.2347620221       -1.7191260104
 H          4.6866199817        1.8302356313       -0.3429678763
 H          5.9595127363        0.1462659309        0.9413983579
 H          4.9635798993       -2.0243371987        1.5019513070
 H          2.6863409681       -2.6026315220        0.7541266964
 H         -3.1650729405       -0.7661255838       -1.5354051716
 H         -5.4606536890        0.0748894124       -1.7021560331
