  94
  -153.863693500000       0.281963916409347      !
 N          2.9024135559       -3.1503247358       -1.2741020788
 C          2.3261022891       -2.2637635145       -0.8320339176
 C          1.6137939366       -1.1445456853       -0.3430212870
 C          2.3138049574        0.0200169362        0.0077111746
 N          3.7013702773        0.0360718358        0.0067452181
 C          4.5265370439       -0.8510938269        0.6834162594
 C          4.1931272532       -1.8831553184        1.5438590372
 C          5.2239898570       -2.5997581305        2.1219805046
 C          6.5555612685       -2.2879613049        1.8653508618
 C          6.8921426568       -1.2361603973        1.0360643067
 C          5.8725715474       -0.5056289570        0.4422656966
 C          5.8566649201        0.6387446906       -0.4285702786
 C          6.8550187982        1.3985237062       -1.0215742671
 C          6.4888527194        2.4411815188       -1.8499162148
 C          5.1490846960        2.7145911322       -2.1074077704
 C          4.1390433142        1.9680312209       -1.5305348870
 C          4.5014529250        0.9460741101       -0.6698461980
 C          1.5887765796        1.1695827047        0.3581050840
 C          2.2757969644        2.3035720103        0.8493363056
 N          2.8304275777        3.2024036460        1.2943791206
 C          0.1834478009        1.1637924211        0.3531608804
 N         -0.5148001524        2.3077872793        0.7260319109
 C         -0.4534794252        3.5398687734        0.0847306918
 C          0.3980579648        3.9741711039       -0.9170037585
 C          0.2116777661        5.2495594653       -1.4172584507
 C         -0.8068310795        6.0711586966       -0.9454749478
 C         -1.6745391972        5.6328846043        0.0355863141
 C         -1.5021406707        4.3582167307        0.5551556288
 C         -2.2182159808        3.5921524469        1.5389479556
 C         -3.3169515089        3.8573504857        2.3432583576
 C         -3.7417217395        2.8819533588        3.2246588601
 C         -3.0608321180        1.6741237102        3.3402984335
 C         -1.9590512232        1.3928092956        2.5545668755
 C         -1.5740989026        2.3411803195        1.6217099488
 C         -0.5099675318       -0.0089181514        0.0026191726
 N         -1.9066565981       -0.0215346768       -0.0022197461
 C         -2.7209475760        0.8513188517       -0.7043965597
 C         -2.3769741527        1.8426352808       -1.6093942760
 C         -3.3981168146        2.5773564151       -2.1805413726
 C         -4.7319445804        2.3149025801       -1.8835229200
 C         -5.0805659539        1.2910543448       -1.0249061453
 C         -4.0707880955        0.5465025785       -0.4324382778
 C         -4.0665268742       -0.5729652460        0.4677760878
 C         -5.0715768741       -1.3068278728        1.0812756414
 C         -4.7159837313       -2.3336633012        1.9334007792
 C         -3.3789552348       -2.6109747119        2.2010540017
 C         -2.3620321693       -1.8865143643        1.6093338537
 C         -2.7141601089       -0.8893117510        0.7140990445
 C          0.2083125965       -1.1673658771       -0.3430308932
 N         -0.4641800204       -2.3253528391       -0.7186841230
 C         -0.3625555376       -3.5621414706       -0.0927147651
 C          0.4901419499       -3.9753355683        0.9171079591
 C          0.3494460750       -5.2647224656        1.3957726900
 C         -0.6264106922       -6.1207927930        0.8957466284
 C         -1.4975936782       -5.7036294694       -0.0913565683
 C         -1.3705949428       -4.4151044699       -0.5894716926
 C         -2.1028738291       -3.6643017965       -1.5730715498
 C         -3.1765423584       -3.9640040728       -2.3989715509
 C         -3.6274640027       -2.9952693791       -3.2746516824
 C         -2.9958803842       -1.7586834036       -3.3624367997
 C         -1.9188136726       -1.4429674795       -2.5558081014
 C         -1.5086935133       -2.3873329577       -1.6296522183
 H          3.1652024872       -2.1227158218        1.7708122236
 H          4.9890973965       -3.4150460578        2.7894267461
 H          7.3332910324       -2.8719848134        2.3335302214
 H          7.9244910500       -0.9798519354        0.8542714606
 H          7.8942328154        1.1720183499       -0.8392562122
 H          7.2497972821        3.0486920393       -2.3158877841
 H          4.8912350302        3.5231156916       -2.7745718194
 H          3.1047899241        2.1766311516       -1.7594213372
 H          1.1857331227        3.3477968756       -1.3069702196
 H          0.8705448088        5.6115853775       -2.1920437551
 H         -0.9205427635        7.0615479510       -1.3596540441
 H         -2.4752871034        6.2625712075        0.3916684543
 H         -3.8225398167        4.8086479977        2.2816013110
 H         -4.6016022611        3.0640574744        3.8513002793
 H         -3.3934938941        0.9413287940        4.0598287550
 H         -1.4170365514        0.4678386124        2.6781750179
 H         -1.3493842964        2.0399592131       -1.8761754104
 H         -3.1515202273        3.3670494958       -2.8742713639
 H         -5.5023223796        2.9125296168       -2.3468592131
 H         -6.1159123155        1.0679750049       -0.8178718605
 H         -6.1085980517       -1.0727553796        0.8958034647
 H         -5.4828146618       -2.9224116523        2.4138287695
 H         -3.1263614239       -3.4038273373        2.8890746112
 H         -1.3316197835       -2.0951841056        1.8552068743
 H          1.2443802291       -3.3223911034        1.3292897182
 H          1.0105925509       -5.6109536635        2.1757778974
 H         -0.7043409764       -7.1214638440        1.2931148799
 H         -2.2665079148       -6.3600832318       -0.4686347667
 H         -3.6428310765       -4.9363350041       -2.3576164732
 H         -4.4690177152       -3.2041629777       -3.9176879032
 H         -3.3478156408       -1.0296886330       -4.0766063831
 H         -1.4137649456       -0.4952611647       -2.6606262178
  94
  -153.863689820000       0.280868039782473      !
 N          2.9155385544       -2.9817428417       -1.6056286336
 C          2.3351088415       -2.0773424864       -1.2074122849
 C          1.6190379421       -0.9878776823       -0.6600143836
 C          2.3172020976        0.0333893146        0.0027642298
 N          3.7049274032        0.0492164962        0.0066207599
 C          4.5139108324        0.1033034502        1.1328099288
 C          4.1615598697        0.0947239093        2.4716363198
 C          5.1792130001        0.1163091770        3.4067089555
 C          6.5162072450        0.1292706397        3.0213963516
 C          6.8719137768        0.1033824301        1.6871376095
 C          5.8659498458        0.0853874907        0.7313447363
 C          5.8703256649        0.0292817718       -0.7056862855
 C          6.8816907626        0.0189197441       -1.6558659853
 C          6.5335259299       -0.0086599515       -2.9920381981
 C          5.1986354310       -0.0042353380       -3.3848237958
 C          4.1756653081        0.0093464727       -2.4554574585
 C          4.5208124395        0.0012785852       -1.1147106497
 C          1.5913899842        1.0370375037        0.6623683111
 C          2.2772261186        2.1427189831        1.2158297231
 N          2.8343179287        3.0597683762        1.6181365598
 C          0.1860008564        1.0244125395        0.6652390373
 N         -0.5144452102        2.0437617159        1.3017151668
 C         -1.5712989339        2.7540635772        0.7508583339
 C         -1.9629825837        2.8508553417       -0.5739385018
 C         -3.0585071840        3.6420119842       -0.8644227688
 C         -3.7272576270        4.3453150846        0.1326329034
 C         -3.2971450539        4.3026412779        1.4448187643
 C         -2.2047475653        3.5075431753        1.7598232231
 C         -1.4860264550        3.2489337726        2.9780228639
 C         -1.6505655829        3.6787734757        4.2867599618
 C         -0.7835718143        3.2069420082        5.2527187995
 C          0.2266397556        2.3072478285        4.9283103121
 C          0.4055653454        1.8625563249        3.6315414802
 C         -0.4452283246        2.3528173470        2.6551594892
 C         -0.5055491465       -0.0009520623       -0.0041502662
 N         -1.9021436136       -0.0177827774       -0.0056805211
 C         -2.7122200303       -0.0525130813       -1.1283928704
 C         -2.3646788992       -0.0007783897       -2.4687238556
 C         -3.3826910212       -0.0508536682       -3.4015512354
 C         -4.7171669539       -0.1203464328       -3.0134257318
 C         -5.0699245548       -0.1162025633       -1.6782918326
 C         -4.0633078645       -0.0767471422       -0.7242237790
 C         -4.0643547061       -0.0430051591        0.7118951376
 C         -5.0721177614       -0.0479684401        1.6656256958
 C         -4.7204130666       -0.0366054172        3.0009912362
 C         -3.3843749224       -0.0546430027        3.3895546456
 C         -2.3649169968       -0.0593753866        2.4570496597
 C         -2.7135831377       -0.0156240250        1.1167349310
 C          0.2138633123       -1.0100574845       -0.6696070451
 N         -0.4588580873       -2.0477808565       -1.3062377399
 C         -1.5063111523       -2.7744696587       -0.7582847169
 C         -1.8970779174       -2.8797895818        0.5660919377
 C         -2.9839581609       -3.6837359080        0.8538102750
 C         -3.6437632305       -4.3920158079       -0.1456311948
 C         -3.2114127979       -4.3433275252       -1.4569173509
 C         -2.1277217100       -3.5353131517       -1.7689858075
 C         -1.4084409203       -3.2675669367       -2.9849237359
 C         -1.5617457277       -3.7025764975       -4.2932455886
 C         -0.6961817165       -3.2224291548       -5.2564541157
 C          0.3008889615       -2.3091021017       -4.9296420841
 C          0.4676590969       -1.8580057711       -3.6333232216
 C         -0.3811199156       -2.3567071511       -2.6595574550
 H          3.1293436888        0.0607939450        2.7862476911
 H          4.9295710215        0.1187087701        4.4570061494
 H          7.2833348726        0.1487024935        3.7806147830
 H          7.9088125590        0.0917688062        1.3883906328
 H          7.9168177190        0.0366787692       -1.3513905164
 H          7.3050003738       -0.0229951938       -3.7469777897
 H          4.9550349384       -0.0074249454       -4.4365226517
 H          3.1447741596        0.0367450543       -2.7753282888
 H         -1.4304946224        2.3391728411       -1.3608150594
 H         -3.3955500231        3.7171078697       -1.8872495659
 H         -4.5817836873        4.9497500587       -0.1315439270
 H         -3.7934105197        4.8780514323        2.2110364310
 H         -2.4452204533        4.3637656340        4.5394115137
 H         -0.8920035822        3.5317868266        6.2764702006
 H          0.8842633079        1.9445295555        5.7038049727
 H          1.1868006794        1.1535474626        3.4031534111
 H         -1.3369507115        0.0848152293       -2.7887575594
 H         -3.1332791793       -0.0309632397       -4.4518439002
 H         -5.4850149990       -0.1614148000       -3.7711764615
 H         -6.1060190379       -0.1403800057       -1.3773699700
 H         -6.1082378013       -0.0643740660        1.3642748443
 H         -5.4895509269       -0.0308139081        3.7585262164
 H         -3.1345955608       -0.0705985672        4.4398321946
 H         -1.3349348334       -0.1069475786        2.7774254878
 H         -1.3703643384       -2.3644170752        1.3544358541
 H         -3.3211389797       -3.7646570468        1.8761365287
 H         -4.4922932138       -5.0058326028        0.1161327022
 H         -3.6993981741       -4.9238501030       -2.2245611810
 H         -2.3460726287       -4.3988333000       -4.5474244934
 H         -0.7950899385       -3.5520924989       -6.2796392516
 H          0.9581115828       -1.9407775232       -5.7028347047
 H          1.2390481564       -1.1388398200       -3.4035338592
  94
  -153.863503860000       0.230696509958704      !
 N          2.9138046225       -3.1074899290       -1.3336084040
 C          2.3326615930       -2.2296482638       -0.8804948012
 C          1.6159196574       -1.1188455221       -0.3789324657
 C          2.3145372412        0.0425160877       -0.0115428959
 N          3.7016966891        0.0444875303        0.0205700406
 C          4.4912949821       -0.8584086595        0.7194640773
 C          4.1141002384       -1.8885041868        1.5640831075
 C          5.1138475517       -2.6232185934        2.1731560017
 C          6.4576914489       -2.3302691973        1.9626372305
 C          6.8373702100       -1.2798177272        1.1503071606
 C          5.8494188613       -0.5318126647        0.5254808217
 C          5.8787454010        0.6180845318       -0.3377120190
 C          6.9079146069        1.3666899336       -0.8908459794
 C          6.5855226932        2.4211219009       -1.7225007768
 C          5.2592793667        2.7179390489       -2.0209812399
 C          4.2189533191        1.9830384622       -1.4840581673
 C          4.5368692844        0.9477373320       -0.6215982436
 C          1.5877608147        1.1934897967        0.3276081557
 C          2.2683693308        2.3333512560        0.8143251608
 N          2.8144988104        3.2390962856        1.2557735526
 C          0.1815039596        1.1856960492        0.3233890478
 N         -0.5120537460        2.3393916692        0.6744143475
 C         -0.4348359116        3.5541187835        0.0029011463
 C          0.4105466821        3.9445262407       -1.0220524093
 C          0.2430079323        5.2104521259       -1.5520801946
 C         -0.7522029885        6.0641776832       -1.0872485671
 C         -1.6160154514        5.6680532515       -0.0849645625
 C         -1.4622121672        4.4035338728        0.4648401140
 C         -2.1819621861        3.6736181596        1.4731143247
 C         -3.2673682773        3.9791998354        2.2811672757
 C         -3.7041131311        3.0321544902        3.1871267959
 C         -3.0484380563        1.8122504964        3.3212085602
 C         -1.9597269024        1.4907228592        2.5326586385
 C         -1.5619171410        2.4116873303        1.5778880543
 C         -0.5093272138        0.0079975671       -0.0087831345
 N         -1.9045304361       -0.0364119751        0.0411984497
 C         -2.7885516735        0.7854494328       -0.6374091089
 C         -2.5335620094        1.8058816412       -1.5394345102
 C         -3.6149866500        2.4741292248       -2.0807281706
 C         -4.9212869593        2.1204480000       -1.7573177421
 C         -5.1804109799        1.0717361608       -0.8972841388
 C         -4.1095213880        0.3934258452       -0.3336273812
 C         -4.0136722801       -0.7240478673        0.5639048216
 C         -4.9528427486       -1.5230064773        1.2005445298
 C         -4.5094808836       -2.5220605058        2.0447624915
 C         -3.1513943266       -2.7061970584        2.2858852214
 C         -2.1996264806       -1.9168091272        1.6695374484
 C         -2.6387627483       -0.9518210122        0.7773668693
 C          0.2113610622       -1.1444298423       -0.3754829384
 N         -0.4661629291       -2.2931268708       -0.7704458833
 C         -0.3797364881       -3.5441801086       -0.1700559049
 C          0.4852527958       -3.9979533074        0.8112602758
 C          0.3263272019       -5.2939420048        1.2659226499
 C         -0.6784998663       -6.1180118763        0.7698506775
 C         -1.5598253372       -5.6616720330       -0.1904766473
 C         -1.4147161841       -4.3660272040       -0.6643733258
 C         -2.1483744660       -3.5822030357       -1.6207773237
 C         -3.2433013077       -3.8422015351       -2.4322003762
 C         -3.6865945341       -2.8479957627       -3.2830063577
 C         -3.0268115826       -1.6256533991       -3.3627382827
 C         -1.9294247020       -1.3492054694       -2.5691592973
 C         -1.5269707396       -2.3181309385       -1.6653102883
 H          3.0755608321       -2.1109809990        1.7583285196
 H          4.8443783307       -3.4375860065        2.8286878045
 H          7.2105801081       -2.9279860153        2.4537405089
 H          7.8789220102       -1.0375915832        1.0054965782
 H          7.9367783606        1.1223423141       -0.6757986109
 H          7.3708058769        3.0198814900       -2.1584518655
 H          5.0361197947        3.5365755147       -2.6883603480
 H          3.1963975603        2.2122358828       -1.7430748455
 H          1.1776275706        3.2903191243       -1.4080409136
 H          0.8971732004        5.5390565510       -2.3455236194
 H         -0.8518599302        7.0457990647       -1.5252436808
 H         -2.4001277382        6.3222747909        0.2638935073
 H         -3.7536304363        4.9393801161        2.2030705847
 H         -4.5539679970        3.2459186379        3.8175062948
 H         -3.3905013549        1.1017361706        4.0584929662
 H         -1.4383861133        0.5560642712        2.6709415874
 H         -1.5287399523        2.0767730679       -1.8267576354
 H         -3.4379477097        3.2840625957       -2.7724345649
 H         -5.7407021435        2.6672762556       -2.1990139045
 H         -6.1933093395        0.7793218651       -0.6664860119
 H         -6.0073351575       -1.3601602120        1.0390044434
 H         -5.2237941113       -3.1609016863        2.5418205738
 H         -2.8309082138       -3.4766030813        2.9710359555
 H         -1.1516994559       -2.0505789584        1.8936278674
 H          1.2647435375       -3.3724964664        1.2184632954
 H          0.9970354204       -5.6709079076        2.0231919691
 H         -0.7701814974       -7.1250223704        1.1478404654
 H         -2.3495572035       -6.2937937205       -0.5663744920
 H         -3.7315924170       -4.8039520007       -2.3997242458
 H         -4.5441305184       -3.0259471552       -3.9141363982
 H         -3.3729982766       -0.8772666248       -4.0594927184
 H         -1.4025376196       -0.4124111913       -2.6660439007
  94
  -153.862791650000       0.108575533161230      !
 N          2.8998880886       -3.0131808493       -1.5344712510
 C          2.3193049657       -2.1028849199       -1.1499677898
 C          1.6086718511       -1.0028477042       -0.6172661631
 C          2.3137719312        0.0301092035        0.0233441030
 N          3.6994443575        0.0644545766       -0.0283563711
 C          4.5645432894        0.1658436930        1.0521602394
 C          4.2849306052        0.1762378971        2.4080815883
 C          5.3500096238        0.2521588719        3.2858231488
 C          6.6634856101        0.2981214891        2.8290424800
 C          6.9481753712        0.2495089565        1.4785415621
 C          5.8936171210        0.1772640810        0.5795662592
 C          5.8249509250        0.0883330214       -0.8541510407
 C          6.7857005165        0.0821766560       -1.8555131526
 C          6.3699261357        0.0150693389       -3.1707752989
 C          5.0169056634       -0.0213392959       -3.4930595007
 C          4.0437599803       -0.0125368764       -2.5116783456
 C          4.4575318877        0.0154702079       -1.1907177639
 C          1.5925483913        1.0207334505        0.7056137058
 C          2.2718274523        2.1221785462        1.2757266726
 N          2.8119422995        3.0412720912        1.6964427305
 C          0.1855454464        1.0145728268        0.7134811070
 N         -0.4967698497        2.0115719902        1.4038596422
 C         -1.5424113051        2.7795561033        0.9153460005
 C         -1.9556283172        2.9655913198       -0.3934212603
 C         -3.0349257409        3.8007253473       -0.6132388707
 C         -3.6675753488        4.4585827994        0.4371210183
 C         -3.2188731334        4.3214936778        1.7363836598
 C         -2.1425981202        3.4812921441        1.9813393901
 C         -1.4196333013        3.1216680901        3.1710569887
 C         -1.5629576612        3.4562633846        4.5100124136
 C         -0.7052496729        2.8868145878        5.4308728964
 C          0.2750115793        1.9834949057        5.0324694527
 C          0.4328993055        1.6329999711        3.7044218315
 C         -0.4075460426        2.2222634902        2.7748311448
 C         -0.5107765945        0.0154668513        0.0157336461
 N         -1.9033100337        0.0434770771       -0.0916768116
 C         -2.5785903092        0.0248039284       -1.3017699686
 C         -2.0719832160        0.0928619539       -2.5895938765
 C         -2.9704367116        0.0635332463       -3.6387315941
 C         -4.3420223586       -0.0020055986       -3.4129264829
 C         -4.8523095929       -0.0095691030       -2.1294950232
 C         -3.9670874484        0.0110957173       -1.0607326786
 C         -4.1338501309        0.0414111016        0.3657842672
 C         -5.2492668237        0.0535723598        1.1903211421
 C         -5.0613136582        0.0746883607        2.5579348810
 C         -3.7815198319        0.0549262636        3.1034868861
 C         -2.6566147989        0.0319766145        2.3016068058
 C         -2.8393880056        0.0564467101        0.9284055295
 C          0.2052541789       -1.0155140224       -0.6238340257
 N         -0.4863353299       -2.0696318480       -1.2111539111
 C         -1.5225753617       -2.7586420824       -0.5962442498
 C         -1.8799263506       -2.7825414048        0.7412837645
 C         -2.9522805451       -3.5738639709        1.1071171294
 C         -3.6325507712       -4.3455262259        0.1703416744
 C         -3.2371492998       -4.3719735240       -1.1532372959
 C         -2.1675384558       -3.5787143846       -1.5431081527
 C         -1.4768635359       -3.3852889072       -2.7893556475
 C         -1.6617224468       -3.8997569046       -4.0641993864
 C         -0.8149498573       -3.4866160168       -5.0737591246
 C          0.1972720467       -2.5655099966       -4.8246887051
 C          0.3962607624       -2.0367736117       -3.5628998717
 C         -0.4385951322       -2.4617112072       -2.5432958594
 H          3.2733344503        0.1197884153        2.7800947820
 H          5.1564496659        0.2729662517        4.3475857139
 H          7.4689245180        0.3618131059        3.5449129946
 H          7.9672849464        0.2638771065        1.1240751119
 H          7.8342843618        0.1342597313       -1.6061004776
 H          7.1012218825        0.0039732045       -3.9646254254
 H          4.7189655666       -0.0519031746       -4.5302208492
 H          2.9974713115       -0.0142928262       -2.7785026703
 H         -1.4544824349        2.4864060545       -1.2204630093
 H         -3.3884123661        3.9468492505       -1.6227792200
 H         -4.5102105012        5.0996713460        0.2265470606
 H         -3.6890501602        4.8575450260        2.5463843183
 H         -2.3359583786        4.1421226985        4.8207751966
 H         -0.7987288304        3.1354258698        6.4772127934
 H          0.9234827629        1.5414906616        5.7738616420
 H          1.1857699214        0.9148836093        3.4159159435
 H         -1.0123861102        0.1792154309       -2.7796884041
 H         -2.5972600056        0.0969686160       -4.6512679455
 H         -5.0136234789       -0.0277490272       -4.2577450276
 H         -5.9173212367       -0.0262690030       -1.9562103371
 H         -6.2411466162        0.0454648174        0.7650387857
 H         -5.9162496056        0.0935527725        3.2168766004
 H         -3.6599703641        0.0534448158        4.1763287996
 H         -1.6744631704       -0.0091536652        2.7475353075
 H         -1.3347351750       -2.2174153510        1.4816709263
 H         -3.2612034562       -3.5950779324        2.1412655646
 H         -4.4679440416       -4.9487176815        0.4921415253
 H         -3.7420061976       -5.0001951560       -1.8707916581
 H         -2.4547980606       -4.6058307731       -4.2567892494
 H         -0.9387595661       -3.8783096988       -6.0720549477
 H          0.8424397982       -2.2546146880       -5.6324605100
 H          1.1835002695       -1.3181223743       -3.3936317081
  94
  -153.862076060000       5.091779361482643E-002 !
 N          2.9241491897       -3.0909812958       -1.4042882805
 C          2.3390168099       -2.1902738682       -1.0043432981
 C          1.6195480834       -1.0806693683       -0.5023212369
 C          2.3165692256        0.0186814045        0.0210764166
 N          3.7062615323        0.0401027062        0.0178837438
 C          4.5366230028       -0.8956386871        0.6164205462
 C          4.2065287940       -1.9938782155        1.3929301706
 C          5.2433698968       -2.7490830252        1.9083721615
 C          6.5730373374       -2.4133967116        1.6710335296
 C          6.9041270622       -1.3018648439        0.9210452863
 C          5.8801834006       -0.5295788190        0.3905753221
 C          5.8549684781        0.6756018597       -0.3939420354
 C          6.8451859341        1.4779159929       -0.9437502125
 C          6.4670786019        2.5776410902       -1.6888987744
 C          5.1237803877        2.8725206253       -1.9023085899
 C          4.1199363492        2.0870604750       -1.3670179000
 C          4.4971719009        1.0004008799       -0.5957187394
 C          1.5915258153        1.1008219614        0.5421292690
 C          2.2830062226        2.2230662620        1.0551723419
 N          2.8435965503        3.1336534000        1.4673361593
 C          0.1862536175        1.0892454239        0.5449007057
 N         -0.5158957467        2.1694985102        1.0701945617
 C         -1.5630404213        2.8257325600        0.4407575139
 C         -1.9437471589        2.7871703674       -0.8901526566
 C         -3.0285235569        3.5545689904       -1.2707198943
 C         -3.6971102195        4.3642400967       -0.3577448556
 C         -3.2800860358        4.4511487190        0.9565366554
 C         -2.1992373828        3.6818687172        1.3624797582
 C         -1.4973516685        3.5374934486        2.6091138045
 C         -1.6756560375        4.0913816866        3.8686423803
 C         -0.8286567374        3.7032257234        4.8879613163
 C          0.1743572184        2.7648413771        4.6662331024
 C          0.3685143182        2.1971781927        3.4204363542
 C         -0.4617169233        2.6050103631        2.3892562966
 C         -0.5048309583       -0.0115411988        0.0088278467
 N         -1.9016942218       -0.0240771348        0.0016682411
 C         -2.7070785069       -0.1668907528       -1.1159432857
 C         -2.3526479461       -0.2565868962       -2.4523307452
 C         -3.3670172355       -0.3906884306       -3.3808592215
 C         -4.7039733358       -0.4051426972       -2.9952731874
 C         -5.0627739083       -0.2606140840       -1.6695914496
 C         -4.0601133463       -0.1348173299       -0.7187924534
 C         -4.0672142054        0.0478185624        0.7060678983
 C         -5.0788666655        0.1534666254        1.6498593056
 C         -4.7323826123        0.3012333902        2.9784714856
 C         -3.3982384632        0.3096138299        3.3738965650
 C         -2.3749738438        0.1960690175        2.4524162555
 C         -2.7180462986        0.1036565947        1.1132546606
 C          0.2141548187       -1.0984659699       -0.5191254624
 N         -0.4590227818       -2.1901580618       -1.0579076709
 C         -1.5099251734       -2.8633062628       -0.4526924887
 C         -1.9197293483       -2.8346119155        0.8698444907
 C         -3.0049675531       -3.6142521431        1.2234228400
 C         -3.6447423665       -4.4273821694        0.2930593800
 C         -3.1964882645       -4.5065504381       -1.0114437656
 C         -2.1150834465       -3.7244821785       -1.3904807472
 C         -1.3884280722       -3.5673000984       -2.6212814169
 C         -1.5313233520       -4.1215440049       -3.8851555194
 C         -0.6687692295       -3.7187226317       -4.8855911972
 C          0.3133786562       -2.7640587121       -4.6414072033
 C          0.4718954716       -2.1955987708       -3.3908890845
 C         -0.3716727884       -2.6201493234       -2.3774231963
 H          3.1790349535       -2.2589626359        1.5947650988
 H          5.0144957672       -3.6160143218        2.5090799010
 H          7.3545613934       -3.0296750345        2.0891064904
 H          7.9352388498       -1.0317650124        0.7522161348
 H          7.8869312158        1.2396614867       -0.7933825323
 H          7.2218904503        3.2163369569       -2.1226498735
 H          4.8576257335        3.7308350811       -2.5004183532
 H          3.0814353824        2.3205305985       -1.5511609002
 H         -1.4122472894        2.1889031894       -1.6143527909
 H         -3.3572905912        3.5259961369       -2.2985910129
 H         -4.5424613345        4.9470717661       -0.6909803946
 H         -3.7780282941        5.1057503143        1.6551219385
 H         -2.4657813304        4.8053804529        4.0431142042
 H         -0.9477869842        4.1247769875        5.8746392532
 H          0.8146183056        2.4688827231        5.4834409912
 H          1.1435603549        1.4595593127        3.2725486483
 H         -1.3225255923       -0.2161575442       -2.7733731461
 H         -3.1123887824       -0.4811704471       -4.4261700945
 H         -5.4688400286       -0.5146139957       -3.7492413352
 H         -6.1004709531       -0.2419820384       -1.3737175815
 H         -6.1139078027        0.1166523715        1.3465075550
 H         -5.5045432202        0.3949083149        3.7271269995
 H         -3.1528701724        0.4012866951        4.4213072700
 H         -1.3466538083        0.1720051037        2.7807140652
 H         -1.4105551381       -2.2340167216        1.6079558928
 H         -3.3569346673       -3.5924650745        2.2437395425
 H         -4.4919841961       -5.0192000239        0.6050553100
 H         -3.6715086169       -5.1640518289       -1.7231506635
 H         -2.3061222086       -4.8477049148       -4.0773400312
 H         -0.7593330638       -4.1412768485       -5.8749382897
 H          0.9656695831       -2.4557699703       -5.4444092796
 H          1.2305553332       -1.4445412035       -3.2267177437
  94
  -153.861999960000       4.697820707341862E-002 !
 N          2.9160714995       -3.0818475386       -1.4420995755
 C          2.3378811391       -2.1865201295       -1.0207112717
 C          1.6217397790       -1.0820037788       -0.5033522963
 C          2.3194112732        0.0311440037       -0.0093656765
 N          3.7084665230        0.0423239047        0.0152854571
 C          4.4925369450        0.2281771705        1.1450076606
 C          4.1081012295        0.3737314061        2.4675669132
 C          5.1063480051        0.5064851203        3.4147020436
 C          6.4516080494        0.4791689254        3.0593721928
 C          6.8372929334        0.3018369125        1.7451366532
 C          5.8526267468        0.1692499193        0.7760086532
 C          5.8869940707       -0.0485387406       -0.6451976189
 C          6.9175790866       -0.1644216814       -1.5674480532
 C          6.5959898858       -0.3464720353       -2.8981969793
 C          5.2691980135       -0.3940728987       -3.3156318093
 C          4.2259542042       -0.2779689374       -2.4159857345
 C          4.5463637898       -0.1287316891       -1.0769614821
 C          1.5941134473        1.1341661168        0.4659347852
 C          2.2839739549        2.2620405208        0.9690970711
 N          2.8414672534        3.1736405804        1.3826331926
 C          0.1885493594        1.1275217742        0.4633517833
 N         -0.5095509073        2.2380199119        0.9274942231
 C         -0.4489482641        3.5118362726        0.3738852741
 C          0.3789602663        4.0026868162       -0.6224271606
 C          0.1945068449        5.3123950006       -1.0255528475
 C         -0.7978355481        6.1110215254       -0.4658730846
 C         -1.6448876564        5.6148982010        0.5054912505
 C         -1.4759892302        4.3042775868        0.9283913497
 C         -2.1807337487        3.4742290901        1.8674699524
 C         -3.2591300306        3.6903127233        2.7129734979
 C         -3.6832867270        2.6536454131        3.5216858090
 C         -3.0234117978        1.4286809665        3.5231639515
 C         -1.9408281616        1.1948224185        2.6962589296
 C         -1.5537906196        2.2116838027        1.8394594678
 C         -0.5023110463       -0.0013730023       -0.0085922044
 N         -1.8985838434       -0.0379506058        0.0204759546
 C         -2.7598178694        0.8587497707       -0.5891677833
 C         -2.4741704755        1.9484982116       -1.3957077603
 C         -3.5362473836        2.6826268002       -1.8880047740
 C         -4.8527466103        2.3276082145       -1.6103057887
 C         -5.1420315855        1.2131898827       -0.8479287724
 C         -4.0909621541        0.4670501242       -0.3344368412
 C         -4.0252485324       -0.7274350517        0.4608507061
 C         -4.9861250564       -1.5597931715        1.0170720299
 C         -4.5708755169       -2.6387597820        1.7724072463
 C         -3.2190218649       -2.8730710147        2.0045544719
 C         -2.2457231512       -2.0521041314        1.4683765575
 C         -2.6571673585       -1.0014906953        0.6643686259
 C          0.2164685328       -1.1057471334       -0.5009115876
 N         -0.4636741156       -2.2158279414       -0.9918870293
 C         -0.3928969960       -3.5066567746       -0.4798775594
 C          0.4507527960       -4.0293097424        0.4864152566
 C          0.2752020502       -5.3524670507        0.8474066107
 C         -0.7233495082       -6.1346907564        0.2759717148
 C         -1.5848769978       -5.6085375569       -0.6662120496
 C         -1.4245649103       -4.2841865114       -1.0470782076
 C         -2.1431558905       -3.4278449570       -1.9514394477
 C         -3.2305692799       -3.6199119690       -2.7914318035
 C         -3.6645151094       -2.5600771531       -3.5643709637
 C         -3.0047806445       -1.3353300565       -3.5380557397
 C         -1.9137218495       -1.1254096622       -2.7158547448
 C         -1.5180884045       -2.1659808619       -1.8921800991
 H          3.0683089938        0.3831950507        2.7602995786
 H          4.8339942370        0.6322073524        4.4517207226
 H          7.2018867040        0.5921372287        3.8276051506
 H          7.8807257536        0.2634253772        1.4721424759
 H          7.9463351252       -0.1086949844       -1.2462637249
 H          7.3826928301       -0.4446753798       -3.6308872643
 H          5.0473803328       -0.5216645729       -4.3643277359
 H          3.2011788148       -0.3032277661       -2.7562376661
 H          1.1445328215        3.3941155467       -1.0809634661
 H          0.8339712240        5.7200078618       -1.7938215565
 H         -0.9095102051        7.1293102167       -0.8062593486
 H         -2.4274119666        6.2270770876        0.9268578357
 H         -3.7500763859        4.6509283077        2.7377845626
 H         -4.5272360886        2.7981831785        4.1790270131
 H         -3.3579633681        0.6438539817        4.1846487396
 H         -1.4168568112        0.2519455556        2.7304922831
 H         -1.4605449248        2.2227968526       -1.6467742167
 H         -3.3357516755        3.5459172169       -2.5046626794
 H         -5.6563137925        2.9271508245       -2.0107078306
 H         -6.1629399877        0.9224187655       -0.6538661276
 H         -6.0355281628       -1.3608266086        0.8631878356
 H         -5.3026371435       -3.3038295577        2.2055852254
 H         -2.9202144333       -3.7091637519        2.6186581526
 H         -1.2028643146       -2.2288244409        1.6854476299
 H          1.2228622468       -3.4356811552        0.9531848229
 H          0.9270399047       -5.7840550995        1.5917812645
 H         -0.8280664382       -7.1642245671        0.5834450169
 H         -2.3719609006       -6.2079521234       -1.0971793441
 H         -3.7211113358       -4.5798699523       -2.8396271764
 H         -4.5157197686       -2.6858183814       -4.2163483867
 H         -3.3457895734       -0.5321890338       -4.1737977895
 H         -1.3887341549       -0.1824846354       -2.7282931467
