  101
       -156.61510463
 C         -4.5576746005        7.5876809990       -0.2394030859
 C         -5.2519294769        6.4135468429       -0.4790633605
 C         -4.5699309174        5.2216361053       -0.6358972961
 C         -3.1792556252        5.1809193876       -0.5473784790
 C         -2.4646868853        3.9064506171       -0.6908114896
 C         -2.8859432157        2.9526774243       -1.6171094685
 C         -2.2491978427        1.7357027996       -1.7231237726
 C         -1.1755292841        1.4230349557       -0.8884129872
 N         -0.5826078211        0.1553876595       -0.9459429391
 C          0.7968808383        0.0167366509       -0.7700477758
 C          1.3220095356       -1.0601649717       -0.0559508173
 C          2.6845651899       -1.1961626827        0.1003730688
 C          3.5697131016       -0.2609091218       -0.4344674249
 C          5.0189470562       -0.4127412088       -0.2555495725
 C          5.6042662377       -1.6845548756       -0.3396036779
 C          6.9565424555       -1.8845545564       -0.1576449689
 C          7.7456793375       -0.7798213400        0.1303822945
 C          7.1815600214        0.5151863368        0.1873028370
 C          5.8203506883        0.6937070520       -0.0038689601
 C          8.2657920474        1.4190211117        0.4531263888
 C          8.3405031613        2.7934762611        0.6345496993
 C          9.5700729020        3.3590490074        0.9064693975
 C         10.7132764143        2.5699516634        1.0127952052
 C         10.6644326539        1.2004894629        0.8357833650
 C          9.4355992689        0.6288979378        0.5383676066
 N          9.1061226372       -0.6972726079        0.3417167421
 C          9.9955992835       -1.7798879819        0.3811725046
 C         11.1673751481       -1.7528557940       -0.3694032037
 C         12.0440506977       -2.8208060664       -0.3189433550
 C         11.7571228743       -3.9244147248        0.4671509545
 C         10.5883396292       -3.9557291333        1.2095147760
 C          9.7108012940       -2.8881171275        1.1738721617
 C          3.0368038082        0.8210750861       -1.1337547038
 C          1.6755667447        0.9583607155       -1.3055963551
 C         -1.4002944765       -0.9672258474       -1.0921899927
 C         -0.9584205831       -2.1029293897       -1.7747108912
 C         -1.7916048295       -3.1980784358       -1.9189349226
 C         -3.0786387088       -3.1823591155       -1.4133016774
 C         -3.5314744642       -2.0493071028       -0.7411187381
 C         -4.8978076667       -1.9659923730       -0.2252766539
 N         -5.3130014830       -0.7771641497        0.2021899124
 C         -6.5680876105       -0.7161750248        0.6336491343
 C         -7.0664033194        0.5809298889        1.0926936044
 C         -6.2362127280        1.7005607472        1.0595693668
 C         -6.7062576235        2.9228990137        1.4995754026
 C         -8.0060110579        3.0397773908        1.9676026755
 C         -8.8365572958        1.9302361753        1.9989051223
 C         -8.3709387768        0.7038523464        1.5660202473
 N         -7.3911571412       -1.7604379820        0.6690548780
 C         -6.8890641152       -2.9135495177        0.2361845932
 C         -7.7512734261       -4.0946484145        0.2666174490
 C         -9.0686292563       -3.9914473659        0.7087437024
 C         -9.8784856963       -5.1101324969        0.7346342606
 C         -9.3830793917       -6.3372895417        0.3217044400
 C         -8.0726914379       -6.4452611613       -0.1178710345
 C         -7.2575625886       -5.3306567125       -0.1466143432
 N         -5.6499293999       -3.0603292751       -0.2275814330
 C         -2.6888279106       -0.9600152419       -0.5679287581
 C         -0.7286413926        2.3834328575        0.0177503484
 C         -1.3629936084        3.6052097822        0.1082520161
 C         -2.4917110559        6.3689539964       -0.3074335723
 C         -3.1753441531        7.5610079760       -0.1578926299
 H         -5.0906099412        8.5190422151       -0.1175576631
 H         -6.3306170604        6.4259428457       -0.5419356764
 H         -5.1198393518        4.3084744839       -0.8099387908
 H         -3.7115372133        3.1771136463       -2.2758757981
 H         -2.5872055809        1.0095314003       -2.4474648195
 H          0.6516798769       -1.7843572863        0.3830718852
 H          3.0700422801       -2.0260429313        0.6739517661
 H          4.9770965587       -2.5306340082       -0.5780775901
 H          7.3860161401       -2.8708244870       -0.2494045315
 H          5.3875360184        1.6800648091        0.0641044949
 H          7.4513298928        3.4022113480        0.5685573173
 H          9.6505615503        4.4262829106        1.0495355806
 H         11.6587200111        3.0386285298        1.2426584381
 H         11.5530248797        0.5962418284        0.9389386183
 H         11.3764656580       -0.9004183200       -0.9982695338
 H         12.9519509232       -2.7942027170       -0.9029925667
 H         12.4422244639       -4.7578234519        0.5008845029
 H         10.3616983820       -4.8125460674        1.8265806449
 H          8.8091438161       -2.8987074943        1.7679143489
 H          3.7017768201        1.5487860331       -1.5749137607
 H          1.2797691791        1.7944288774       -1.8633887968
 H          0.0365788633       -2.1180694592       -2.1944695371
 H         -1.4322765552       -4.0681272092       -2.4485838323
 H         -3.7415911597       -4.0230526561       -1.5367378647
 H         -5.2286838859        1.5940695049        0.6878663435
 H         -6.0599748771        3.7884517791        1.4803966514
 H         -8.3714101048        3.9974621462        2.3088892686
 H         -9.8490912289        2.0248685708        2.3633302695
 H         -9.0014380533       -0.1711892282        1.5854357580
 H         -9.4369823687       -3.0284453752        1.0257147178
 H        -10.8996413003       -5.0290914015        1.0774342736
 H        -10.0186903954       -7.2105914809        0.3428122373
 H         -7.6889499478       -7.4027869292       -0.4385511990
 H         -6.2349822235       -5.3949507341       -0.4837602886
 H         -3.0546968071       -0.1053835395       -0.0217378633
 H          0.1052470750        2.1554987027        0.6653188348
 H         -1.0253333873        4.3218107761        0.8423494339
 H         -1.4126159580        6.3595466512       -0.2585218999
 H         -2.6277697374        8.4750626300        0.0212515790
