  101
  -155.988315653800       0.430914606480520      !
 C         -4.7643406383        7.5111594252       -0.2901880737
 C         -5.4128901675        6.3426183854        0.0729868294
 C         -4.6903744478        5.1847027907        0.2910921115
 C         -3.3043988095        5.1722648299        0.1408142317
 C         -2.5479361981        3.9316429108        0.3509294259
 C         -1.4740225633        3.5943736884       -0.4711457041
 C         -0.8033138203        2.3986915549       -0.3147737588
 C         -1.1853292456        1.5026695150        0.6820154907
 N         -0.5644236189        0.2526776170        0.8082089850
 C          0.8105737490        0.1248417314        0.5969761629
 C          1.6844708858        1.1272940273        1.0180515736
 C          3.0424835409        1.0014905762        0.8149210339
 C          3.5765980153       -0.1232947263        0.1881172591
 C          5.0246211285       -0.2615523929       -0.0158632566
 C          5.5167526496       -0.7920992394       -1.2169964949
 C          6.8666124083       -0.9532187393       -1.4499580338
 C          7.7499540431       -0.5855911260       -0.4446517350
 C          7.2763994997       -0.0248572773        0.7636548725
 C          5.9155757692        0.1340133552        0.9737720517
 C          8.4373007801        0.2800411982        1.5525435954
 C          8.6168377292        0.8186173786        2.8195880283
 C          9.9025387941        0.9612788922        3.3017044906
 C         11.0004765813        0.5613839796        2.5429163694
 C         10.8474960290        0.0233241085        1.2795869558
 C          9.5589103879       -0.1016074514        0.7803063813
 N          9.1285655120       -0.6233500196       -0.4230676238
 C          9.9506534371       -1.1279900018       -1.4402270700
 C         11.0134564481       -0.3698605645       -1.9228154822
 C         11.8254443287       -0.8764448877       -2.9206389076
 C         11.5805147466       -2.1323617296       -3.4508101688
 C         10.5194021260       -2.8854225430       -2.9760734668
 C          9.7080086277       -2.3914531270       -1.9716748251
 C          2.6965616425       -1.1178336606       -0.2356879928
 C          1.3371491340       -0.9993276331       -0.0390288308
 C         -1.3629253894       -0.8656526759        1.0585271096
 C         -0.8948409218       -1.9441609883        1.8121584530
 C         -1.7179299482       -3.0281431806        2.0626185625
 C         -3.0189009246       -3.0565995455        1.5940421756
 C         -3.4963804046       -1.9808389905        0.8488244200
 C         -4.8753335345       -1.9376748349        0.3623117811
 N         -5.3037885221       -0.7804468621       -0.1337397486
 C         -6.5678242248       -0.7497402236       -0.5405685706
 C         -7.0768374219        0.5120378958       -1.0795891582
 C         -6.2390828514        1.6230700544       -1.1669010898
 C         -6.7165858334        2.8098197965       -1.6886502437
 C         -8.0317989980        2.9006013688       -2.1176941009
 C         -8.8704620647        1.8004740427       -2.0274668075
 C         -8.3971994604        0.6087658032       -1.5134257137
 N         -7.3882792431       -1.7953502743       -0.4881863986
 C         -6.8720542434       -2.9173325479        0.0054391656
 C         -7.7277424456       -4.1022021319        0.0602159756
 C         -9.0603513062       -4.0249876439       -0.3393546042
 C         -9.8621617316       -5.1486731659       -0.2917823768
 C         -9.3432926605       -6.3551736387        0.1521219886
 C         -8.0180624345       -6.4369950619        0.5505814965
 C         -7.2109506388       -5.3170485836        0.5065297267
 N         -5.6228378754       -3.0312760166        0.4516597262
 C         -2.6646139763       -0.9056017807        0.5696414528
 C         -2.2285463862        1.8558595732        1.5389512414
 C         -2.9017981806        3.0452578719        1.3679743376
 C         -2.6629953849        6.3542760913       -0.2237756503
 C         -3.3868833877        7.5130282877       -0.4339851966
 H         -5.3289865381        8.4161086549       -0.4591597380
 H         -6.4876483204        6.3322247274        0.1843820381
 H         -5.2057716306        4.2746759801        0.5606898931
 H         -1.1870051554        4.2591014294       -1.2725209905
 H          0.0080867151        2.1403096583       -0.9792861956
 H          1.2876329598        2.0049389614        1.5069512130
 H          3.7014505809        1.7944743243        1.1363689287
 H          4.8151863706       -1.0593434993       -1.9931947006
 H          7.2219597568       -1.3419714993       -2.3924539964
 H          5.5536960004        0.5421685585        1.9051492983
 H          7.7648516010        1.1129654953        3.4138455875
 H         10.0643474837        1.3790574178        4.2841239921
 H         11.9936142843        0.6710808080        2.9528245808
 H         11.7036400057       -0.3001774816        0.7069833764
 H         11.1874915808        0.6175246591       -1.5217597652
 H         12.6485855823       -0.2837917500       -3.2913793268
 H         12.2147567260       -2.5232061900       -4.2318822003
 H         10.3272704529       -3.8670020585       -3.3834358778
 H          8.8930692042       -2.9836647487       -1.5828102424
 H          3.0857226022       -2.0038028534       -0.7152701833
 H          0.6713469325       -1.7779317688       -0.3810708880
 H          0.1112922550       -1.9235691053        2.2042952609
 H         -1.3389890155       -3.8534856531        2.6473706675
 H         -3.6732358746       -3.8875253086        1.8015247492
 H         -5.2192819569        1.5380601866       -0.8240804569
 H         -6.0639998101        3.6676542518       -1.7636386511
 H         -8.4024019971        3.8304126847       -2.5241851303
 H         -9.8947387298        1.8746486724       -2.3622734413
 H         -9.0333298175       -0.2591523990       -1.4400035822
 H         -9.4463267471       -3.0780635303       -0.6827289745
 H        -10.8950502615       -5.0879612163       -0.6020329817
 H         -9.9721461872       -7.2328634937        0.1867436175
 H         -7.6159982017       -7.3785866355        0.8953072039
 H         -6.1765256104       -5.3613201332        0.8100390232
 H         -3.0503916675       -0.0968810831       -0.0300504184
 H         -2.5156636186        1.1804568371        2.3312081033
 H         -3.7034810079        3.3017722287        2.0442772941
 H         -1.5874059134        6.3683616723       -0.3226756748
 H         -2.8744416587        8.4232830697       -0.7100281285
  101
  -155.987482258000       0.178397606789320      !
 C         -4.7486798039        7.2678882909        0.6225517577
 C         -4.4899392756        6.9319022780       -0.6959547415
 C         -3.7590971251        5.7971991890       -0.9946694180
 C         -3.2687694722        4.9803469229        0.0219078880
 C         -2.5131464672        3.7592482581       -0.2873580700
 C         -2.9096284333        2.9242749981       -1.3309828726
 C         -2.2467473318        1.7428522012       -1.5841382477
 C         -1.1662567927        1.3528938359       -0.7920384509
 N         -0.5617430463        0.1024054628       -0.9908777069
 C          0.8186732834       -0.0391234491       -0.8315945230
 C          1.3618681601       -1.1752038645       -0.2318338685
 C          2.7263023827       -1.2998771129       -0.0798606479
 C          3.5945386203       -0.2950169198       -0.5039617393
 C          5.0455025023       -0.4239286911       -0.3204301201
 C          5.6734703188       -1.6609349965       -0.5239596056
 C          7.0321703830       -1.8309981529       -0.3580301340
 C          7.7859337918       -0.7289252636        0.0203627278
 C          7.1695764033        0.5222172338        0.2516169640
 C          5.8033377873        0.6717698941        0.0734790538
 C          8.2111473590        1.4169846228        0.6729382248
 C          8.2329572004        2.7610748713        1.0202190266
 C          9.4402660210        3.3363443010        1.3626802955
 C         10.6178838401        2.5920403941        1.3475660222
 C         10.6216241330        1.2532361162        1.0056934137
 C          9.4077809614        0.6634282910        0.6829991106
 N          9.1362136653       -0.6303369826        0.2855878229
 C         10.0685682359       -1.6714560645        0.1788175922
 C         10.1371715041       -2.4310343543       -0.9856342944
 C         11.0507473336       -3.4640292890       -1.0834687219
 C         11.9074954771       -3.7411420653       -0.0311044638
 C         11.8450199355       -2.9821242262        1.1257589493
 C         10.9275478820       -1.9538559677        1.2370186064
 C          3.0440104215        0.8414280424       -1.0949530125
 C          1.6816488624        0.9683038919       -1.2635677180
 C         -1.3836327505       -1.0050678813       -1.2098877643
 C         -0.9640708799       -2.0940668922       -1.9770441828
 C         -1.8161394386       -3.1636232837       -2.1924973637
 C         -3.1021709615       -3.1664573802       -1.6821878428
 C         -3.5323491785       -2.0779018717       -0.9278888234
 C         -4.8972863858       -1.9749818503       -0.4115211097
 N         -5.2756944032       -0.7719212490        0.0101595358
 C         -6.5238587866       -0.6675842492        0.4496291349
 C         -6.9707788775        0.6547409017        0.8889262981
 C         -6.1358421639        1.7589610890        0.7197678329
 C         -6.5526048653        3.0112396129        1.1273253772
 C         -7.8012281070        3.1703314567        1.7088795621
 C         -8.6345078937        2.0755062227        1.8804620182
 C         -8.2249055153        0.8208741441        1.4716611869
 N         -7.3752590882       -1.6882241448        0.5046765860
 C         -6.9119231946       -2.8568629802        0.0692433227
 C         -7.8106780667       -4.0099942871        0.1136739143
 C         -9.1240145020       -3.8585884255        0.5543046074
 C         -9.9694560462       -4.9500660941        0.5952626741
 C         -9.5139939262       -6.1978501887        0.1983952408
 C         -8.2081456703       -6.3535708527       -0.2403268052
 C         -7.3572219874       -5.2663961894       -0.2837479383
 N         -5.6824242524       -3.0448564984       -0.4088289633
 C         -2.6672483369       -1.0229019515       -0.6753400030
 C         -0.7345992728        2.2065611763        0.2215195830
 C         -1.4021264946        3.3889339487        0.4677088622
 C         -3.5322199551        5.3302651143        1.3451090949
 C         -4.2674349087        6.4629389229        1.6416716504
 H         -5.3227754163        8.1526415431        0.8545990966
 H         -4.8587588845        7.5587247127       -1.4948162913
 H         -3.5485606208        5.5492429314       -2.0246899762
 H         -3.7668420661        3.1906018162       -1.9315451806
 H         -2.5786365164        1.0974754094       -2.3839508039
 H          0.7045505356       -1.9533857477        0.1270644829
 H          3.1251798051       -2.1772155742        0.4075112729
 H          5.0747050535       -2.5030417871       -0.8376020845
 H          7.4892746179       -2.7972635344       -0.5091001801
 H          5.3309612177        1.6223650209        0.2689138296
 H          7.3224117033        3.3411753908        1.0163516678
 H          9.4790413444        4.3797705452        1.6378861006
 H         11.5497452766        3.0731958603        1.6055678066
 H         11.5422713470        0.6900098739        0.9799790744
 H          9.4827511514       -2.1969482283       -1.8120119463
 H         11.0990137519       -4.0498517286       -1.9894022363
 H         12.6218042269       -4.5462839440       -0.1122875330
 H         12.5083393943       -3.1971171993        1.9503756304
 H         10.8601864504       -1.3744010039        2.1456903230
 H          3.6970621119        1.6244746725       -1.4510668425
 H          1.2721885597        1.8501325601       -1.7342157751
 H          0.0262943304       -2.0937571450       -2.4079577977
 H         -1.4726961627       -3.9978167147       -2.7866449203
 H         -3.7794411965       -3.9841824457       -1.8678461756
 H         -5.1676775581        1.6189760015        0.2641351326
 H         -5.9049558930        3.8654096781        0.9924157766
 H         -8.1244711127        4.1502226859        2.0288416529
 H         -9.6060906532        2.2040330611        2.3348051573
 H         -8.8596071129       -0.0424323238        1.5967753974
 H         -9.4608314460       -2.8797032172        0.8574182379
 H        -10.9874779237       -4.8314678232        0.9366120986
 H        -10.1773786329       -7.0498718810        0.2312979787
 H         -7.8556784725       -7.3272480088       -0.5480378414
 H         -6.3371737166       -5.3679668842       -0.6197790061
 H         -3.0169188267       -0.2092533014       -0.0605662938
 H          0.1130158934        1.9252208642        0.8289510324
 H         -1.0576756284        4.0361768259        1.2608625153
 H         -3.1778836221        4.6947027038        2.1435885907
 H         -4.4703288432        6.7162944745        2.6722453033
  101
  -155.987358612300       0.156518398173672      !
 C         -4.8384236330        7.2928988412       -0.6261431760
 C         -4.4266986390        6.4894195650       -1.6764882414
 C         -3.6761892537        5.3545764681       -1.4312362982
 C         -3.3290428683        5.0007377917       -0.1287142287
 C         -2.5545297828        3.7793446553        0.1287386184
 C         -1.4842207138        3.4203490880       -0.6878423623
 C         -0.7965460621        2.2413443275       -0.4837979262
 C         -1.1683192171        1.3802122227        0.5466312880
 N         -0.5422102017        0.1341908642        0.7064358785
 C          0.8364316227        0.0181064746        0.5128326635
 C          1.6910226740        1.0347231074        0.9396870391
 C          3.0532007425        0.9249562463        0.7575758244
 C          3.6101749091       -0.1968502430        0.1455723820
 C          5.0633604054       -0.3143029446       -0.0329811685
 C          5.5861479409       -0.8439760212       -1.2211319335
 C          6.9431450549       -0.9705128188       -1.4336853380
 C          7.8024906290       -0.5523585874       -0.4273674343
 C          7.2956031699       -0.0385931788        0.7883271875
 C          5.9283090302        0.0855201614        0.9778291358
 C          8.4346054273        0.2460028251        1.6158113539
 C          8.5805472868        0.7766927558        2.8904482518
 C          9.8545579148        0.9492020776        3.3932750405
 C         10.9748495123        0.6126126502        2.6364881490
 C         10.8552978945        0.0824760434        1.3662028299
 C          9.5768479307       -0.1143175997        0.8639711033
 N          9.1799701885       -0.5947601336       -0.3677703946
 C         10.0304014391       -1.0400492342       -1.3891728434
 C          9.8878474700       -0.5440270189       -2.6819058961
 C         10.7248212926       -0.9887680937       -3.6882894084
 C         11.7130109467       -1.9198251767       -3.4146514737
 C         11.8594610583       -2.4106220228       -2.1278081638
 C         11.0206859727       -1.9794001206       -1.1168709357
 C          2.7494672422       -1.2042153211       -0.2869469071
 C          1.3857659078       -1.1019850885       -0.1105970965
 C         -1.3409124362       -0.9829566691        0.9548969111
 C         -0.8742098383       -2.0764453854        1.6881213037
 C         -1.7068486523       -3.1533824175        1.9389685049
 C         -3.0196507393       -3.1581352759        1.5022883015
 C         -3.4969002835       -2.0645625597        0.7844177256
 C         -4.8930887607       -1.9604940500        0.3607350758
 N         -5.3053536944       -0.7540077853       -0.0172407954
 C         -6.5852981462       -0.6482593953       -0.3533410221
 C         -7.0718830374        0.6787243000       -0.7326813170
 C         -8.3780755701        0.8503337470       -1.1849938415
 C         -8.8273907716        2.1093963471       -1.5340497900
 C         -7.9815673864        3.2033485485       -1.4326953082
 C         -6.6807984105        3.0387658638       -0.9816285486
 C         -6.2247895108        1.7821893310       -0.6335147943
 N         -7.4362668375       -1.6707780300       -0.3533031385
 C         -6.9358219758       -2.8444524405        0.0234507773
 C         -7.8295127207       -4.0022565078        0.0302943458
 C         -9.1775782573       -3.8507794878       -0.2881186723
 C        -10.0169528739       -4.9477440997       -0.2794015232
 C         -9.5207106075       -6.2008455072        0.0452903998
 C         -8.1800801841       -6.3565689202        0.3621994354
 C         -7.3351927548       -5.2639350042        0.3558717381
 N         -5.6725688158       -3.0337030970        0.4016687229
 C         -2.6519404056       -1.0039029916        0.4910695633
 C         -2.2082908630        1.7574166097        1.3968728326
 C         -2.8906702692        2.9361087211        1.1867601667
 C         -3.7515132532        5.8148826655        0.9198441137
 C         -4.4966129478        6.9524750951        0.6720166958
 H         -5.4233837106        8.1800507658       -0.8183749360
 H         -4.6944356350        6.7467687586       -2.6910250538
 H         -3.3750157229        4.7203131765       -2.2523196818
 H         -1.1879665010        4.0738779631       -1.4952274775
 H          0.0210725537        1.9692642175       -1.1350635049
 H          1.2753629343        1.9107495870        1.4157479181
 H          3.6980260726        1.7275845537        1.0838301332
 H          4.9030072630       -1.1451726320       -2.0013316029
 H          7.3205523358       -1.3908491717       -2.3536757223
 H          5.5408444281        0.4629391083        1.9118993479
 H          7.7123906855        1.0513667584        3.4704980676
 H          9.9902905496        1.3587613345        4.3830149328
 H         11.9592858224        0.7732619533        3.0505287354
 H         11.7299337755       -0.1584678627        0.7810470335
 H          9.1299023508        0.1975787304       -2.8857143646
 H         10.6093995103       -0.6001208536       -4.6892091031
 H         12.3674217366       -2.2616145074       -4.2020528979
 H         12.6255665156       -3.1401767246       -1.9110241104
 H         11.1168133073       -2.3759226234       -0.1171663830
 H          3.1568962869       -2.0874958651       -0.7561872417
 H          0.7347515653       -1.8901774790       -0.4589979358
 H          0.1376236838       -2.0741838685        2.0656679508
 H         -1.3262769809       -3.9914986975        2.5042672117
 H         -3.6820811466       -3.9801630189        1.7196713533
 H         -9.0218633657       -0.0123370114       -1.2564032951
 H         -9.8398932096        2.2419442435       -1.8866006898
 H         -8.3359972766        4.1869904296       -1.7047363046
 H         -6.0231971488        3.8923129157       -0.9021094243
 H         -5.2158421289        1.6382035181       -0.2789061091
 H         -9.5456910195       -2.8679000220       -0.5370792333
 H        -11.0620844982       -4.8293914173       -0.5255955232
 H        -10.1794740876       -7.0570723930        0.0512218278
 H         -7.7958531121       -7.3341955342        0.6143075039
 H         -6.2887215703       -5.3648646177        0.5976563114
 H         -3.0402254975       -0.1865528895       -0.0949169661
 H         -2.4926926507        1.1047928163        2.2088996885
 H         -3.7155645366        3.1949194397        1.8340048500
 H         -3.4764569217        5.5623415618        1.9334263962
 H         -4.8113972160        7.5778547754        1.4949025783
  101
  -155.987150543400       0.125586671104567      !
 C         -4.8123645011        7.2334341162        0.6169838120
 C         -4.5550375834        6.8822527351       -0.6976977217
 C         -3.8090366279        5.7541990228       -0.9839182351
 C         -3.3018093480        4.9591837875        0.0416133210
 C         -2.5325172563        3.7431706422       -0.2532340527
 C         -2.9193267077        2.8918820668       -1.2874647778
 C         -2.2461874048        1.7129356037       -1.5239805772
 C         -1.1655452342        1.3411396805       -0.7232703857
 N         -0.5529247713        0.0913831871       -0.9002744481
 C          0.8291122534       -0.0372689942       -0.7424160351
 C          1.3808858893       -1.1561091515       -0.1186062227
 C          2.7468289173       -1.2724648159        0.0246242824
 C          3.6086030405       -0.2766764697       -0.4336262986
 C          5.0618003677       -0.4067833479       -0.2697911020
 C          5.6781380686       -1.6522580007       -0.4590658016
 C          7.0369348915       -1.8305275870       -0.3050281294
 C          7.8008504124       -0.7316354442        0.0621572676
 C          7.2041348290        0.5388382815        0.2309816528
 C          5.8368157270        0.6960068501        0.0665386826
 C          8.2683151149        1.4476055497        0.5549965982
 C          8.3108423866        2.8050216085        0.8439377667
 C          9.5302747174        3.3807970691        1.1393785320
 C         10.6954027026        2.6173611528        1.1643017059
 C         10.6786088614        1.2651499519        0.8808743876
 C          9.4596699650        0.6856196981        0.5587409016
 N          9.1618875515       -0.6290817404        0.2612669890
 C         10.0829318845       -1.6827002980        0.1825721953
 C         11.2326152257       -1.5511631804       -0.5909695379
 C         12.1407947044       -2.5912053212       -0.6601845180
 C         11.9073096768       -3.7699773859        0.0285469699
 C         10.7607091534       -3.9048968622        0.7935707539
 C          9.8519436269       -2.8663994285        0.8775376346
 C          3.0489951931        0.8448795507       -1.0440509247
 C          1.6845422424        0.9639349098       -1.2024304441
 C         -1.3659062600       -1.0240388140       -1.1097459439
 C         -0.9324739087       -2.1232360381       -1.8545504102
 C         -1.7782750780       -3.1985446368       -2.0659068820
 C         -3.0723564726       -3.1966145498       -1.5763330168
 C         -3.5161455330       -2.0983093192       -0.8443794825
 C         -4.8928930107       -1.9856869356       -0.3627434628
 N         -5.2808408960       -0.7753170368        0.0276247240
 C         -6.5426985194       -0.6604899030        0.4238292605
 C         -7.0008885663        0.6714331651        0.8208681737
 C         -6.1579464164        1.7703431279        0.6556249847
 C         -6.5870493750        3.0326868392        1.0158345530
 C         -7.8561194757        3.2075947917        1.5466496151
 C         -8.6964382255        2.1180829360        1.7165007809
 C         -8.2745814151        0.8531178957        1.3541471917
 N         -7.3996191103       -1.6770495806        0.4644240273
 C         -6.9254786722       -2.8540819871        0.0641793915
 C         -7.8300852787       -4.0031677810        0.0894774282
 C         -9.1633098221       -3.8388289393        0.4599831876
 C        -10.0142572484       -4.9266677027        0.4786385601
 C         -9.5445535086       -6.1834187107        0.1294457162
 C         -8.2187890955       -6.3519675764       -0.2391140387
 C         -7.3623636809       -5.2684791551       -0.2603680517
 N         -5.6807564491       -3.0535882738       -0.3667215738
 C         -2.6564322743       -1.0390038359       -0.5916573451
 C         -0.7418305382        2.2121306004        0.2787168921
 C         -1.4192277010        3.3923726429        0.5078184321
 C         -3.5638831328        5.3246454713        1.3609884863
 C         -4.3139567948        6.4506420210        1.6450509896
 H         -5.3986785462        8.1126521714        0.8393028169
 H         -4.9384703382        7.4909390767       -1.5038082810
 H         -3.6004353524        5.4947685179       -2.0113437220
 H         -3.7770276800        3.1433510409       -1.8936076533
 H         -2.5705626978        1.0549289395       -2.3164900722
 H          0.7286887401       -1.9276521264        0.2632824202
 H          3.1531978584       -2.1364007442        0.5294062521
 H          5.0703473678       -2.4925076379       -0.7600523308
 H          7.4905836664       -2.7945630270       -0.4794058860
 H          5.3792755908        1.6616486867        0.2185423390
 H          7.4053392083        3.3929449553        0.8405439949
 H          9.5858555490        4.4354912455        1.3642037931
 H         11.6325974490        3.0923381682        1.4144865001
 H         11.5841708406        0.6788386033        0.9209946274
 H         11.3991859000       -0.6391472440       -1.1444571187
 H         13.0310927086       -2.4832827333       -1.2617506773
 H         12.6167446398       -4.5812730050       -0.0311520456
 H         10.5762568109       -4.8207474300        1.3353185050
 H          8.9675640955       -2.9591605417        1.4901664037
 H          3.6956489408        1.6209322964       -1.4260606210
 H          1.2677777674        1.8332158021       -1.6897719848
 H          0.0634360605       -2.1261198384       -2.2724043234
 H         -1.4238820218       -4.0406124657       -2.6422324399
 H         -3.7457205769       -4.0174616639       -1.7624462716
 H         -5.1739950914        1.6176409066        0.2397210447
 H         -5.9336697435        3.8827526279        0.8837800234
 H         -8.1889985758        4.1958077618        1.8285596857
 H         -9.6836559352        2.2584788316        2.1320434121
 H         -8.9148880399       -0.0060728703        1.4790695814
 H         -9.5106841426       -2.8531538231        0.7268233375
 H        -11.0476661955       -4.7984210449        0.7654775914
 H        -10.2124815133       -7.0324286451        0.1445494539
 H         -7.8551159825       -7.3325502297       -0.5097985204
 H         -6.3271548656       -5.3795846477       -0.5426741750
 H         -3.0171467943       -0.2181322434        0.0068185518
 H          0.1075478128        1.9459935404        0.8906818903
 H         -1.0807199235        4.0530855695        1.2923722816
 H         -3.1970886910        4.7056577864        2.1666624046
 H         -4.5156224278        6.7158989910        2.6727902024
  101
  -155.986393416400       5.636273656199600E-002 !
 C         -4.5814730640        7.5663668327        0.4034997671
 C         -5.2718827423        6.4147469709        0.0642003900
 C         -4.5860364446        5.2426290150       -0.1929464125
 C         -3.1952894546        5.1988343056       -0.1070625728
 C         -2.4766200112        3.9434185897       -0.3578568528
 C         -2.8943427238        3.0706478761       -1.3623204717
 C         -2.2536987828        1.8690914003       -1.5710028051
 C         -1.1795172771        1.4898395443       -0.7650440146
 N         -0.5825642586        0.2335320136       -0.9297671349
 C          0.7972562970        0.0846871832       -0.7651687663
 C          1.3253813786       -1.0474548123       -0.1448864759
 C          2.6882716286       -1.1920426363        0.0004234457
 C          3.5707624689       -0.2119223494       -0.4521409615
 C          5.0203678800       -0.3739415665       -0.2855949878
 C          5.6097467042       -1.6321662778       -0.4771069126
 C          6.9625452474       -1.8427372621       -0.3117110979
 C          7.7480284016       -0.7640889684        0.0699514172
 C          7.1797913401        0.5196206234        0.2364199126
 C          5.8181327158        0.7095471866        0.0600089109
 C          8.2610148787        1.4009045540        0.5791046662
 C          8.3312842148        2.7551549881        0.8769151898
 C          9.5589092809        3.2993374114        1.1970039089
 C         10.7045386011        2.5075991387        1.2367283881
 C         10.6601182444        1.1580281659        0.9437597130
 C          9.4332628497        0.6100212120        0.5977557942
 N          9.1080854090       -0.6956132439        0.2886716158
 C         10.0009534314       -1.7748974035        0.2365764419
 C         11.1730593873       -1.6804480279       -0.5080041471
 C         12.0530738981       -2.7460966446       -0.5478975831
 C         11.7691905276       -3.9134924478        0.1411751132
 C         10.6000953071       -4.0115002581        0.8772116233
 C          9.7192107629       -2.9474525202        0.9318390162
 C          3.0348324682        0.9239991329       -1.0572411679
 C          1.6732654494        1.0711950746       -1.2179018299
 C         -1.3966201992       -0.8750876662       -1.1717094506
 C         -0.9507796095       -1.9472027422       -1.9480504086
 C         -1.7804209100       -3.0286779595       -2.1856523018
 C         -3.0677817255       -3.0600399713       -1.6815820317
 C         -3.5245699442       -1.9897208350       -0.9157762741
 C         -4.8914488243       -1.9548476530       -0.3958466552
 N         -5.3106339843       -0.8080093353        0.1309092555
 C         -6.5661484908       -0.7878537436        0.5649541808
 C         -7.0688147060        0.4639225562        1.1323202881
 C         -6.2421447560        1.5848763461        1.1952987493
 C         -6.7162935545        2.7638657161        1.7373553288
 C         -8.0166721292        2.8364566075        2.2125554955
 C         -8.8437285566        1.7257097578        2.1486203180
 C         -8.3739973376        0.5420696952        1.6133110614
 N         -7.3859366544       -1.8338856244        0.5106696168
 C         -6.8799624643       -2.9444078851       -0.0183584839
 C         -7.7384553870       -4.1264764759       -0.0892767950
 C         -9.0563785400       -4.0653631817        0.3589376534
 C         -9.8627133673       -5.1846959908        0.2888490985
 C         -9.3632032798       -6.3707126506       -0.2266186611
 C         -8.0522343377       -6.4368178771       -0.6727033950
 C         -7.2406126425       -5.3212917765       -0.6058001894
 N         -5.6401102832       -3.0473419984       -0.4919080635
 C         -2.6854641575       -0.9165176414       -0.6498042350
 C         -0.7361727451        2.3710040615        0.2199431060
 C         -1.3744299926        3.5786731590        0.4135798179
 C         -2.5116340962        6.3642590951        0.2336979524
 C         -3.1991112803        7.5371354517        0.4835890661
 H         -5.1174146384        8.4823218675        0.6037323875
 H         -6.3505686127        6.4291075153        0.0017179162
 H         -5.1329612292        4.3458954438       -0.4445334893
 H         -3.7202711700        3.3477817463       -2.0002774949
 H         -2.5890053338        1.2061637939       -2.3548016249
 H          0.6570951139       -1.8084597425        0.2303497935
 H          3.0760448130       -2.0665332888        0.5016064384
 H          4.9853854552       -2.4568163093       -0.7872469905
 H          7.3951821653       -2.8162827738       -0.4867261630
 H          5.3821679089        1.6851944092        0.2113288967
 H          7.4402306357        3.3645403937        0.8622370196
 H          9.6359476392        4.3507656080        1.4304528286
 H         11.6483685259        2.9579371785        1.5064308696
 H         11.5505557479        0.5499489898        0.9958473480
 H         11.3798105719       -0.7769343303       -1.0618617963
 H         12.9612134175       -2.6670659390       -1.1268110484
 H         12.4569009456       -4.7446216088        0.1044199008
 H         10.3758139288       -4.9184274786        1.4189243516
 H          8.8172577905       -3.0113596410        1.5220772723
 H          3.6977522040        1.6886751507       -1.4343109945
 H          1.2751434416        1.9504755358       -1.7028377326
 H          0.0444982254       -1.9234775262       -2.3667502848
 H         -1.4180500987       -3.8493709945       -2.7871337909
 H         -3.7280071623       -3.8892262692       -1.8766731120
 H         -5.2340761541        1.5135308933        0.8167153237
 H         -6.0727361423        3.6299079325        1.7924510555
 H         -8.3852846025        3.7604808302        2.6338121550
 H         -9.8567606956        1.7858434054        2.5189387942
 H         -9.0017415353       -0.3333981054        1.5576566879
 H         -9.4279481979       -3.1339805768        0.7564170951
 H        -10.8843120785       -5.1362903441        0.6364569843
 H         -9.9960656211       -7.2446070123       -0.2804430577
 H         -7.6652915883       -7.3623807805       -1.0733996837
 H         -6.2176452274       -5.3534880349       -0.9463479561
 H         -3.0543361702       -0.1126138903       -0.0331583991
 H          0.0980674602        2.0913637694        0.8464520739
 H         -1.0394462190        4.2312336459        1.2062847507
 H         -1.4325423102        6.3540658709        0.2825251567
 H         -2.6545261872        8.4343172623        0.7403344147
  101
  -155.986321271800       5.221998088992457E-002 !
 C         -4.8581697398        7.4485484684       -1.1786313716
 C         -4.2818157018        6.6657081088       -2.1650245171
 C         -3.5227384727        5.5629133595       -1.8223794977
 C         -3.3257619252        5.2204434271       -0.4854046016
 C         -2.5456445388        4.0264742475       -0.1355110474
 C         -1.4092846703        3.6700613225       -0.8599547416
 C         -0.7317003680        2.4979549812       -0.5955686726
 C         -1.1735361345        1.6387576591        0.4102844993
 N         -0.5548366000        0.4010432718        0.6155481342
 C          0.8217151859        0.2586604242        0.3928528623
 C          1.7157714602        1.2158654159        0.8687830235
 C          3.0726845245        1.0507343036        0.6861070794
 C          3.5794575751       -0.0647063605        0.0207066152
 C          5.0284864673       -0.2571615917       -0.1222385563
 C          5.5699791356       -0.7405964954       -1.3211654790
 C          6.9258452674       -0.9357469956       -1.4869926380
 C          7.7633711032       -0.6394770415       -0.4205104970
 C          7.2330223367       -0.1808011300        0.8071311890
 C          5.8694046801        0.0176284122        0.9486392433
 C          8.3462521263       -0.0280684358        1.7008129256
 C          8.4605297288        0.3972900931        3.0174082290
 C          9.7164778394        0.4517919491        3.5874826842
 C         10.8498099724        0.1029617279        2.8560489106
 C         10.7609689836       -0.3238854736        1.5447905074
 C          9.4989650172       -0.4040755784        0.9734408719
 N          9.1319398346       -0.7707600033       -0.3062189251
 C         10.0027062110       -1.1850793647       -1.3236434160
 C          9.9415609934       -0.5885710553       -2.5799284995
 C         10.7996468707       -1.0005713576       -3.5823958888
 C         11.7288571143       -1.9987522766       -3.3401949300
 C         11.7938454415       -2.5903287261       -2.0895787370
 C         10.9328167797       -2.1922571655       -1.0836331367
 C          2.6770183609       -1.0015895251       -0.4791406645
 C          1.3191422885       -0.8457671633       -0.2974306030
 C         -1.3231057700       -0.7193948416        0.9340644236
 C         -0.7859416635       -1.7721823034        1.6797290930
 C         -1.5588114471       -2.8771263730        1.9881713772
 C         -2.8817498304       -2.9516154781        1.5912793597
 C         -3.4301370868       -1.8966886929        0.8675503913
 C         -4.8417941709       -1.8824201064        0.4851513081
 N         -5.3810674346       -0.6904925817        0.2509787799
 C         -6.6802279348       -0.6821093438       -0.0272116221
 C         -7.3257454371        0.6234282698       -0.1680082750
 C         -8.7064193003        0.7163932295       -0.3268449933
 C         -9.3069399874        1.9570117882       -0.4238199099
 C         -8.5380040760        3.1095071471       -0.3690718730
 C         -7.1622786488        3.0223446501       -0.2183254004
 C         -6.5562514073        1.7854144269       -0.1152467670
 N         -7.4129457553       -1.7835003592       -0.1701250344
 C         -6.7790409155       -2.9345973784        0.0361098498
 C         -7.5162123517       -4.1816915655       -0.1637252531
 C         -8.8014903198       -4.1643382741       -0.7007840472
 C         -9.4787551910       -5.3507183374       -0.9071877750
 C         -8.8844446088       -6.5585977272       -0.5758799000
 C         -7.6068108459       -6.5802437877       -0.0380880900
 C         -6.9217257643       -5.3986256205        0.1655870026
 N         -5.5052750435       -3.0286137078        0.4141268480
 C         -2.6492221140       -0.8033147467        0.5228978489
 C         -2.2676534251        2.0257768815        1.1861455041
 C         -2.9438358129        3.1944474469        0.9102354358
 C         -3.9098033689        6.0167225414        0.4978644283
 C         -4.6675323364        7.1205559810        0.1533489132
 H         -5.4531643333        8.3090195854       -1.4467401519
 H         -4.4287233943        6.9134968502       -3.2064004641
 H         -3.0948303926        4.9447644505       -2.5978559153
 H         -1.0522051591        4.3195159863       -1.6456197186
 H          0.1328065178        2.2284021883       -1.1843459424
 H          1.3359410807        2.0827194701        1.3895171293
 H          3.7542295057        1.8006958775        1.0595024496
 H          4.9049992798       -0.9492209162       -2.1461624519
 H          7.3180574113       -1.3177528686       -2.4175095512
 H          5.4632378179        0.3541754590        1.8902775292
 H          7.5824234154        0.6815269449        3.5775417030
 H          9.8280922370        0.7773602851        4.6109388468
 H         11.8208840191        0.1712845657        3.3237266087
 H         11.6476598168       -0.5743005716        0.9822692890
 H          9.2312637313        0.2052776400       -2.7569728214
 H         10.7481073335       -0.5332588115       -4.5545670884
 H         12.4002747196       -2.3146820567       -4.1240845929
 H         12.5131093119       -3.3727005814       -1.8978903145
 H         10.9645124317       -2.6670991435       -0.1143419586
 H          3.0463358316       -1.8728426897       -0.9995651012
 H          0.6309602376       -1.5830712718       -0.6842368600
 H          0.2385104879       -1.7173562820        2.0170573570
 H         -1.1228314810       -3.6818499325        2.5617455407
 H         -3.4990255520       -3.7979815610        1.8452173176
 H         -9.2887613432       -0.1911032452       -0.3637086772
 H        -10.3784501122        2.0296023936       -0.5404778482
 H         -9.0115996680        4.0777032956       -0.4429938344
 H         -6.5634584995        3.9213839879       -0.1798891575
 H         -5.4879989996        1.6993492885        0.0099132714
 H         -9.2463666767       -3.2152678342       -0.9562164302
 H        -10.4727730447       -5.3380560355       -1.3298574315
 H         -9.4165745646       -7.4845759216       -0.7387679348
 H         -7.1458909491       -7.5224517156        0.2203077637
 H         -5.9251930938       -5.3939953891        0.5785921479
 H         -3.0932123314       -0.0189409778       -0.0690173780
 H         -2.6006267582        1.3893280976        1.9923630256
 H         -3.8136020558        3.4509895694        1.4967125842
 H         -3.7538427588        5.7782944153        1.5398369749
 H         -5.1125783596        7.7288438865        0.9276099656
