  101
       -156.61510463
 C         -4.5576746005        7.5876809990       -0.2394030859
 C         -5.2519294769        6.4135468429       -0.4790633605
 C         -4.5699309174        5.2216361053       -0.6358972961
 C         -3.1792556252        5.1809193876       -0.5473784790
 C         -2.4646868853        3.9064506171       -0.6908114896
 C         -2.8859432157        2.9526774243       -1.6171094685
 C         -2.2491978427        1.7357027996       -1.7231237726
 C         -1.1755292841        1.4230349557       -0.8884129872
 N         -0.5826078211        0.1553876595       -0.9459429391
 C          0.7968808383        0.0167366509       -0.7700477758
 C          1.3220095356       -1.0601649717       -0.0559508173
 C          2.6845651899       -1.1961626827        0.1003730688
 C          3.5697131016       -0.2609091218       -0.4344674249
 C          5.0189470562       -0.4127412088       -0.2555495725
 C          5.6042662377       -1.6845548756       -0.3396036779
 C          6.9565424555       -1.8845545564       -0.1576449689
 C          7.7456793375       -0.7798213400        0.1303822945
 C          7.1815600214        0.5151863368        0.1873028370
 C          5.8203506883        0.6937070520       -0.0038689601
 C          8.2657920474        1.4190211117        0.4531263888
 C          8.3405031613        2.7934762611        0.6345496993
 C          9.5700729020        3.3590490074        0.9064693975
 C         10.7132764143        2.5699516634        1.0127952052
 C         10.6644326539        1.2004894629        0.8357833650
 C          9.4355992689        0.6288979378        0.5383676066
 N          9.1061226372       -0.6972726079        0.3417167421
 C          9.9955992835       -1.7798879819        0.3811725046
 C         11.1673751481       -1.7528557940       -0.3694032037
 C         12.0440506977       -2.8208060664       -0.3189433550
 C         11.7571228743       -3.9244147248        0.4671509545
 C         10.5883396292       -3.9557291333        1.2095147760
 C          9.7108012940       -2.8881171275        1.1738721617
 C          3.0368038082        0.8210750861       -1.1337547038
 C          1.6755667447        0.9583607155       -1.3055963551
 C         -1.4002944765       -0.9672258474       -1.0921899927
 C         -0.9584205831       -2.1029293897       -1.7747108912
 C         -1.7916048295       -3.1980784358       -1.9189349226
 C         -3.0786387088       -3.1823591155       -1.4133016774
 C         -3.5314744642       -2.0493071028       -0.7411187381
 C         -4.8978076667       -1.9659923730       -0.2252766539
 N         -5.3130014830       -0.7771641497        0.2021899124
 C         -6.5680876105       -0.7161750248        0.6336491343
 C         -7.0664033194        0.5809298889        1.0926936044
 C         -6.2362127280        1.7005607472        1.0595693668
 C         -6.7062576235        2.9228990137        1.4995754026
 C         -8.0060110579        3.0397773908        1.9676026755
 C         -8.8365572958        1.9302361753        1.9989051223
 C         -8.3709387768        0.7038523464        1.5660202473
 N         -7.3911571412       -1.7604379820        0.6690548780
 C         -6.8890641152       -2.9135495177        0.2361845932
 C         -7.7512734261       -4.0946484145        0.2666174490
 C         -9.0686292563       -3.9914473659        0.7087437024
 C         -9.8784856963       -5.1101324969        0.7346342606
 C         -9.3830793917       -6.3372895417        0.3217044400
 C         -8.0726914379       -6.4452611613       -0.1178710345
 C         -7.2575625886       -5.3306567125       -0.1466143432
 N         -5.6499293999       -3.0603292751       -0.2275814330
 C         -2.6888279106       -0.9600152419       -0.5679287581
 C         -0.7286413926        2.3834328575        0.0177503484
 C         -1.3629936084        3.6052097822        0.1082520161
 C         -2.4917110559        6.3689539964       -0.3074335723
 C         -3.1753441531        7.5610079760       -0.1578926299
 H         -5.0906099412        8.5190422151       -0.1175576631
 H         -6.3306170604        6.4259428457       -0.5419356764
 H         -5.1198393518        4.3084744839       -0.8099387908
 H         -3.7115372133        3.1771136463       -2.2758757981
 H         -2.5872055809        1.0095314003       -2.4474648195
 H          0.6516798769       -1.7843572863        0.3830718852
 H          3.0700422801       -2.0260429313        0.6739517661
 H          4.9770965587       -2.5306340082       -0.5780775901
 H          7.3860161401       -2.8708244870       -0.2494045315
 H          5.3875360184        1.6800648091        0.0641044949
 H          7.4513298928        3.4022113480        0.5685573173
 H          9.6505615503        4.4262829106        1.0495355806
 H         11.6587200111        3.0386285298        1.2426584381
 H         11.5530248797        0.5962418284        0.9389386183
 H         11.3764656580       -0.9004183200       -0.9982695338
 H         12.9519509232       -2.7942027170       -0.9029925667
 H         12.4422244639       -4.7578234519        0.5008845029
 H         10.3616983820       -4.8125460674        1.8265806449
 H          8.8091438161       -2.8987074943        1.7679143489
 H          3.7017768201        1.5487860331       -1.5749137607
 H          1.2797691791        1.7944288774       -1.8633887968
 H          0.0365788633       -2.1180694592       -2.1944695371
 H         -1.4322765552       -4.0681272092       -2.4485838323
 H         -3.7415911597       -4.0230526561       -1.5367378647
 H         -5.2286838859        1.5940695049        0.6878663435
 H         -6.0599748771        3.7884517791        1.4803966514
 H         -8.3714101048        3.9974621462        2.3088892686
 H         -9.8490912289        2.0248685708        2.3633302695
 H         -9.0014380533       -0.1711892282        1.5854357580
 H         -9.4369823687       -3.0284453752        1.0257147178
 H        -10.8996413003       -5.0290914015        1.0774342736
 H        -10.0186903954       -7.2105914809        0.3428122373
 H         -7.6889499478       -7.4027869292       -0.4385511990
 H         -6.2349822235       -5.3949507341       -0.4837602886
 H         -3.0546968071       -0.1053835395       -0.0217378633
 H          0.1052470750        2.1554987027        0.6653188348
 H         -1.0253333873        4.3218107761        0.8423494339
 H         -1.4126159580        6.3595466512       -0.2585218999
 H         -2.6277697374        8.4750626300        0.0212515790
  101
       -156.61505759
 C         -4.7881009908        7.2749245815        0.1079419485
 C         -4.5319229569        6.8317270830       -1.1788687728
 C         -3.7897015456        5.6839190293       -1.3852393960
 C         -3.2851657888        4.9609431058       -0.3064469254
 C         -2.5199480650        3.7247101564       -0.5152607072
 C         -2.9095858005        2.8044177281       -1.4874701829
 C         -2.2403973843        1.6095645918       -1.6407146080
 C         -1.1610259761        1.2911148230       -0.8156669560
 N         -0.5525948088        0.0299934538       -0.9046049643
 C          0.8289995425       -0.0919132072       -0.7377732692
 C          1.3770049051       -1.1661848697       -0.0370403368
 C          2.7425469078       -1.2767953013        0.1143345134
 C          3.6076650540       -0.3184100211       -0.4122686696
 C          5.0604142949       -0.4415873375       -0.2393547169
 C          5.6725773137       -1.6993086825       -0.3408320105
 C          7.0307653355       -1.8709005223       -0.1743447928
 C          7.7983523063       -0.7515625986        0.1152218405
 C          7.2058955710        0.5295993863        0.1945542636
 C          5.8391148124        0.6794422623        0.0191619989
 C          8.2731091972        1.4552544319        0.4544410202
 C          8.3201804700        2.8294156053        0.6476747884
 C          9.5415295446        3.4203784135        0.9024045150
 C         10.7040909515        2.6566688792        0.9810016334
 C         10.6827702887        1.2879996829        0.7929105112
 C          9.4619026650        0.6914213442        0.5118164657
 N          9.1597210823       -0.6398741927        0.3070154615
 C         10.0772297128       -1.6994897326        0.3024966945
 C         11.2273651820       -1.6262619636       -0.4780586896
 C         12.1320543305       -2.6716279302       -0.4740744586
 C         11.8946030403       -3.7985151636        0.2954136499
 C         10.7475392259       -3.8757234833        1.0677095106
 C          9.8422585184       -2.8308639301        1.0785489683
 C          3.0518343244        0.7595338927       -1.0998413514
 C          1.6877917863        0.8717720689       -1.2665166386
 C         -1.3693064781       -1.0946307280       -1.0357001506
 C         -0.9395447353       -2.2447062995       -1.7016302206
 C         -1.7889413753       -3.3293379123       -1.8374218659
 C         -3.0830201676       -3.2888197870       -1.3495168429
 C         -3.5231412593       -2.1404988787       -0.6963464194
 C         -4.8995143872       -1.9898398221       -0.2241287410
 N         -5.2834111409       -0.7538251440        0.0804647142
 C         -6.5448857244       -0.6073304548        0.4673356854
 C         -6.9986168828        0.7506403051        0.7700575512
 C         -6.1519915508        1.8324652845        0.5285204996
 C         -6.5768682150        3.1183526781        0.7993809042
 C         -7.8453568742        3.3342264729        1.3163251649
 C         -8.6893274180        2.2620902579        1.5618017649
 C         -8.2717056006        0.9734621333        1.2889842077
 N         -7.4052104981       -1.6156854352        0.5787624761
 C         -6.9350096854       -2.8194239767        0.2620055838
 C         -7.8434641600       -3.9608905737        0.3674367962
 C         -9.1761386867       -3.7665660709        0.7251881753
 C        -10.0307287974       -4.8475805044        0.8197199577
 C         -9.5652330810       -6.1272535609        0.5594682569
 C         -8.2400328012       -6.3256165938        0.2039508622
 C         -7.3799792587       -5.2491420081        0.1071327161
 N         -5.6909535080       -3.0527609105       -0.1535541784
 C         -2.6598872008       -1.0689822188       -0.5181668726
 C         -0.7344164164        2.2286809671        0.1230086217
 C         -1.4078581563        3.4243217807        0.2687651939
 C         -3.5460428945        5.4187301952        0.9840451723
 C         -4.2923438371        6.5643487104        1.1884060171
 H         -5.3714691709        8.1695021706        0.2680256506
 H         -4.9132945560        7.3837763745       -2.0257047999
 H         -3.5819478170        5.3525158104       -2.3919330460
 H         -3.7664250941        3.0157095479       -2.1099482789
 H         -2.5669588244        0.8987891780       -2.3853080121
 H          0.7222160883       -1.9069214119        0.3977465071
 H          3.1460056827       -2.1046344571        0.6784525778
 H          5.0619798929       -2.5565282768       -0.5824251322
 H          7.4811835447       -2.8462879590       -0.2807023395
 H          5.3848111584        1.6548791124        0.1030868810
 H          7.4166535049        3.4186830672        0.6029057481
 H          9.6006408705        4.4880305086        1.0528714133
 H         11.6428671252        3.1448568429        1.1975689369
 H         11.5863606229        0.7029106752        0.8742031323
 H         11.3970051020       -0.7557852550       -1.0939807279
 H         13.0227228377       -2.6090524073       -1.0814899502
 H         12.6013154594       -4.6143664953        0.2928286900
 H         10.5600051496       -4.7507873355        1.6721843073
 H          8.9575590287       -2.8775607204        1.6959402632
 H          3.7010948929        1.5047791771       -1.5350660311
 H          1.2739550583        1.7061985166       -1.8136138333
 H          0.0563594778       -2.2801591509       -2.1180011723
 H         -1.4373602763       -4.2108595113       -2.3533038453
 H         -3.7591281894       -4.1184249719       -1.4778933410
 H         -5.1685482340        1.6477387491        0.1245779104
 H         -5.9206393558        3.9549018309        0.6083196942
 H         -8.1749274780        4.3408548716        1.5282901186
 H         -9.6760783506        2.4345263478        1.9662444481
 H         -8.9148919563        0.1272675304        1.4735728192
 H         -9.5202125948       -2.7634756308        0.9222940697
 H        -11.0637085099       -4.6961178011        1.0966131683
 H        -10.2360040303       -6.9708866220        0.6337878566
 H         -7.8796430320       -7.3239506501        0.0026578219
 H         -6.3451423245       -5.3831944241       -0.1664380030
 H         -3.0178612937       -0.2070332412        0.0212930835
 H          0.1140509946        2.0031924491        0.7523190837
 H         -1.0671550572        4.1371927195        1.0052366818
 H         -3.1813440408        4.8564299383        1.8311623699
 H         -4.4931424357        6.9015628468        2.1950065964
  101
       -156.61501599
 C         -4.7281705410        7.3071944726        0.0950949792
 C         -4.4678478454        6.8777785073       -1.1956903140
 C         -3.7398122539        5.7226716461       -1.4115701968
 C         -3.2539212845        4.9786115281       -0.3385451469
 C         -2.5013422540        3.7365082154       -0.5587670146
 C         -2.8982670838        2.8307265157       -1.5413865823
 C         -2.2384209938        1.6324430810       -1.7086551431
 C         -1.1606558448        1.2965980167       -0.8885455186
 N         -0.5594895253        0.0334425674       -0.9968619888
 C          0.8201828922       -0.1003476695       -0.8249463064
 C          1.3588054216       -1.1925519918       -0.1449259273
 C          2.7225605042       -1.3100023489        0.0184678135
 C          3.5946236270       -0.3402317993       -0.4739658355
 C          5.0448332416       -0.4599166895       -0.2786049189
 C          5.6695029387       -1.7100234419       -0.3925053438
 C          7.0273609914       -1.8717427204       -0.2119830042
 C          7.7836677223       -0.7477457292        0.0889089698
 C          7.1705961889        0.5183955466        0.2294865838
 C          5.8051623462        0.6588113529        0.0382252657
 C          8.2140054288        1.4378387690        0.5885292832
 C          8.2391469230        2.8031130710        0.8396312665
 C          9.4474937426        3.3977993398        1.1430376456
 C         10.6229113599        2.6509583397        1.1833169279
 C         10.6233250085        1.2912678203        0.9372899274
 C          9.4083616866        0.6835007974        0.6546178532
 N          9.1337129516       -0.6344230453        0.3494000156
 C         10.0631624912       -1.6831364281        0.3187787127
 C         10.1317821130       -2.5236061153       -0.7887030412
 C         11.0424597557       -3.5635285777       -0.8110281359
 C         11.8963102135       -3.7677128015        0.2601990119
 C         11.8338314950       -2.9283579229        1.3601644783
 C         10.9192171990       -1.8921866728        1.3962078086
 C          3.0486517046        0.7529791261       -1.1452807148
 C          1.6870085006        0.8714399863       -1.3254257319
 C         -1.3842509621       -1.0844401869       -1.1385377427
 C         -0.9664380840       -2.2263088572       -1.8255954681
 C         -1.8212719491       -3.3060323301       -1.9664786169
 C         -3.1083049903       -3.2690034758       -1.4600442856
 C         -3.5367102441       -2.1284592348       -0.7858030995
 C         -4.9023445922       -1.9852893503       -0.2809992388
 N         -5.2779854664       -0.7542740932        0.0534516177
 C         -6.5266926255       -0.6154779828        0.4817040394
 C         -6.9705236009        0.7359451509        0.8251177097
 C         -6.1319633366        1.8230067351        0.5798629049
 C         -6.5457839847        3.1022226008        0.8966515456
 C         -7.7950652924        3.3057170597        1.4627449157
 C         -8.6319453450        2.2281939861        1.7097547103
 C         -8.2252895621        0.9465626278        1.3918773497
 N         -7.3812429248       -1.6272192560        0.6071706647
 C         -6.9205449564       -2.8251164411        0.2567441811
 C         -7.8228242855       -3.9696335138        0.3809170093
 C         -9.1365648205       -3.7836199353        0.8068471563
 C         -9.9853402634       -4.8670367022        0.9232981146
 C         -9.5328279990       -6.1411209273        0.6169377269
 C         -8.2265922236       -6.3312817467        0.1932012663
 C         -7.3723426922       -5.2523474347        0.0746106005
 N         -5.6906771596       -3.0500436593       -0.2041194336
 C         -2.6689604262       -1.0606606893       -0.6068569503
 C         -0.7284408757        2.2187936176        0.0628332308
 C         -1.3929165520        3.4175436010        0.2230757940
 C         -3.5189215173        5.4222709531        0.9559244444
 C         -4.2513317205        6.5752133850        1.1697921070
 H         -5.3000760885        8.2078075219        0.2625471725
 H         -4.8332261111        7.4473896043       -2.0378043001
 H         -3.5279964658        5.4016671677       -2.4209464757
 H         -3.7535017008        3.0562070745       -2.1611869853
 H         -2.5706657348        0.9328935558       -2.4613872688
 H          0.6984643139       -1.9414410663        0.2668462245
 H          3.1178595665       -2.1516816142        0.5677145967
 H          5.0688425234       -2.5705567083       -0.6469161476
 H          7.4818736459       -2.8475849695       -0.2931333563
 H          5.3352436194        1.6222137775        0.1647069981
 H          7.3303468883        3.3840602003        0.7926461470
 H          9.4888443049        4.4580068559        1.3436124242
 H         11.5556972638        3.1465580960        1.4085558662
 H         11.5423351202        0.7250249826        0.9535927896
 H          9.4796862836       -2.3468814210       -1.6310223083
 H         11.0907542255       -4.2122822587       -1.6730138760
 H         12.6083697004       -4.5786102000        0.2378870880
 H         12.4948868371       -3.0861878537        2.1993920406
 H         10.8518034532       -1.2495359187        2.2613351410
 H          3.7047359672        1.5069303326       -1.5546297271
 H          1.2811072190        1.7188146701       -1.8583323167
 H          0.0247672139       -2.2593834114       -2.2532963220
 H         -1.4791558379       -4.1812480554       -2.4992048916
 H         -3.7876481895       -4.0959136508       -1.5886936181
 H         -5.1633288929        1.6483007362        0.1374097270
 H         -5.8953240642        3.9428267285        0.7028916831
 H         -8.1160082665        4.3067530161        1.7116851148
 H         -9.6040296024        2.3913888702        2.1517270184
 H         -8.8628102507        0.0961134501        1.5765427468
 H         -9.4710515922       -2.7847442618        1.0390233099
 H        -11.0036712852       -4.7216299865        1.2531652688
 H        -10.1988169940       -6.9867744552        0.7087614315
 H         -7.8764307274       -7.3253331146       -0.0438962162
 H         -6.3519448841       -5.3803979850       -0.2511551575
 H         -3.0174055242       -0.2044568595       -0.0521125891
 H          0.1171370309        1.9788520497        0.6905296979
 H         -1.0480915725        4.1184464126        0.9690606738
 H         -3.1680517813        4.8439559530        1.7982459440
 H         -4.4554899515        6.9016210723        2.1793536339
  101
       -156.61498532
 C         -4.7412867882        7.4742098450       -0.9257718569
 C         -5.3931523555        6.3428733860       -0.4640904058
 C         -4.6740469543        5.2054476632       -0.1486263814
 C         -3.2882414373        5.1758884329       -0.2980784974
 C         -2.5354521618        3.9552696759        0.0164449202
 C         -1.4632697663        3.5458662351       -0.7745432442
 C         -0.7961392050        2.3657204763       -0.5173449362
 C         -1.1801030041        1.5589999420        0.5523063479
 N         -0.5629685496        0.3223304323        0.7840862630
 C          0.8114507653        0.1726392119        0.5837286677
 C          1.6887977611        1.2045286979        0.9174615707
 C          3.0462454574        1.0576057600        0.7250134011
 C          3.5763534569       -0.1181277979        0.1959204695
 C          5.0237718612       -0.2778162274        0.0036349060
 C          5.5132624171       -0.9102208390       -1.1482582528
 C          6.8624231429       -1.0948447574       -1.3674186615
 C          7.7477317580       -0.6457774964       -0.3975472724
 C          7.2769175452        0.0172563206        0.7589134259
 C          5.9167670170        0.1977298120        0.9555099464
 C          8.4394108033        0.3845261460        1.5183359568
 C          8.6216647275        1.0284201657        2.7348405444
 C          9.9082004435        1.2075382744        3.2023428155
 C         11.0042652676        0.7410473890        2.4797288841
 C         10.8485722800        0.0979001526        1.2668669763
 C          9.5591927148       -0.0650042057        0.7807554170
 N          9.1262370369       -0.6859147454       -0.3736017627
 C          9.9459149292       -1.2778898657       -1.3445791141
 C         11.0106614871       -0.5669452312       -1.8905411582
 C         11.8202493776       -1.1591799959       -2.8420814957
 C         11.5709911109       -2.4548842900       -3.2632938876
 C         10.5079441346       -3.1614523364       -2.7255874247
 C          9.6989169878       -2.5812288819       -1.7664223487
 C          2.6928895115       -1.1423456381       -0.1412024663
 C          1.3340140018       -1.0032399847        0.0454197164
 C         -1.3647235028       -0.7681098469        1.1291310102
 C         -0.8993585115       -1.7800333986        1.9715617794
 C         -1.7255940657       -2.8361606740        2.3138382647
 C         -3.0270345913       -2.9002879741        1.8501149376
 C         -3.5017960910       -1.8903564287        1.0163063739
 C         -4.8810113426       -1.8844038486        0.5286596955
 N         -5.3062898523       -0.7722484603       -0.0638484977
 C         -6.5705608662       -0.7722888428       -0.4711047409
 C         -7.0761088607        0.4406339172       -1.1152796045
 C         -6.2349889154        1.5375525630       -1.2973105726
 C         -6.7092449915        2.6770901088       -1.9179083360
 C         -8.0245254898        2.7351771640       -2.3523835348
 C         -8.8665177287        1.6493747289       -2.1683754393
 C         -8.3965237539        0.5042540368       -1.5550333398
 N         -7.3942075987       -1.8070506927       -0.3294548868
 C         -6.8810523457       -2.8845720474        0.2575869232
 C         -7.7403615259       -4.0577723511        0.4134955812
 C         -9.0730552517       -4.0106396057        0.0095512307
 C         -9.8783033498       -5.1236614794        0.1530435182
 C         -9.3628070573       -6.2896341797        0.6977368486
 C         -8.0375071208       -6.3414283902        1.1009704218
 C         -7.2269663475       -5.2318490756        0.9613010879
 N         -5.6318258346       -2.9640665093        0.7111849737
 C         -2.6669340603       -0.8454144391        0.6461507232
 C         -2.2215108683        1.9871365354        1.3766562847
 C         -2.8912160314        3.1597862531        1.1054422964
 C         -2.6434813788        6.3205482964       -0.7623122974
 C         -3.3639499249        7.4594839419       -1.0699796765
 H         -5.3032661820        8.3632718645       -1.1708379914
 H         -6.4678449231        6.3453919508       -0.3516112973
 H         -5.1920374804        4.3233010671        0.1977393412
 H         -1.1748582054        4.1390650835       -1.6297497745
 H          0.0139063304        2.0491571356       -1.1579092921
 H          1.2950857456        2.1218490908        1.3301090871
 H          3.7079320120        1.8729868547        0.9774299371
 H          4.8102289623       -1.2403433896       -1.8984991847
 H          7.2157837161       -1.5635253103       -2.2736051383
 H          5.5569249574        0.6848165855        1.8489702868
 H          7.7710870460        1.3749675869        3.3023665049
 H         10.0721162366        1.7069043274        4.1455470263
 H         11.9980771972        0.8820984496        2.8782550186
 H         11.7032354047       -0.2758649043        0.7233954753
 H         11.1880868188        0.4504376498       -1.5750798761
 H         12.6449153961       -0.6028340013       -3.2623823590
 H         12.2033720941       -2.9127902446       -4.0086208144
 H         10.3124351184       -4.1735302502       -3.0478165047
 H          8.8824691358       -3.1356182619       -1.3281052799
 H          3.0789065283       -2.0671427696       -0.5438535172
 H          0.6655198128       -1.8060249642       -0.2287363275
 H          0.1071580581       -1.7293171086        2.3599578714
 H         -1.3487277069       -3.6099306444        2.9665045134
 H         -3.6837685584       -3.7084690863        2.1279362024
 H         -5.2151726985        1.4788102349       -0.9490710703
 H         -6.0540668454        3.5233646069       -2.0660056095
 H         -8.3925826738        3.6281823456       -2.8363321664
 H         -9.8908366237        1.6980174158       -2.5077052712
 H         -9.0352788553       -0.3522528321       -1.4076476205
 H         -9.4563795088       -3.0951632384       -0.4129577170
 H        -10.9112554353       -5.0863153312       -0.1606686877
 H         -9.9943477735       -7.1592025886        0.8072905011
 H         -7.6380765150       -7.2515273748        1.5243628893
 H         -6.1924324220       -5.2533931857        1.2668962627
 H         -3.0507010101       -0.0894558252       -0.0199824740
 H         -2.5100628764        1.3825257020        2.2236861395
 H         -3.6915399292        3.4754616827        1.7579078828
 H         -1.5679357105        6.3227691148       -0.8626562718
 H         -2.8489194691        8.3413184473       -1.4227849041
  101
       -156.61489667
 C         -4.8160188167        7.2503570415       -1.1077263044
 C         -4.4045018439        6.3794115682       -2.1029292677
 C         -3.6577772475        5.2607676888       -1.7830543615
 C         -3.3142867194        4.9910670959       -0.4595922311
 C         -2.5438337380        3.7867791183       -0.1218847358
 C         -1.4729220564        3.3727048994       -0.9111467519
 C         -0.7890764497        2.2074969174       -0.6296714803
 C         -1.1654201591        1.4159316620        0.4535357967
 N         -0.5432444891        0.1811528314        0.6950682111
 C          0.8354435550        0.0489726747        0.5124244219
 C          1.6921103685        1.0887376574        0.8744336102
 C          3.0543298472        0.9636513712        0.7028123367
 C          3.6092887358       -0.1969654538        0.1659627742
 C          5.0624856455       -0.3297420112       -0.0014102275
 C          5.5861352447       -0.9366876834       -1.1516148459
 C          6.9431867120       -1.0804657885       -1.3525398315
 C          7.8017058750       -0.6003917099       -0.3735213301
 C          7.2938546018       -0.0075803623        0.8052343678
 C          5.9265456924        0.1323149668        0.9832905876
 C          8.4320031144        0.3268638150        1.6150591197
 C          8.5769070971        0.9385807686        2.8529748094
 C          9.8503940798        1.1397768164        3.3463796950
 C         10.9712321291        0.7517960395        2.6154453005
 C         10.8527110409        0.1408402732        1.3818943261
 C          9.5747132532       -0.0845382478        0.8906459856
 N          9.1789338068       -0.6426435123       -0.3082707053
 C         10.0301327259       -1.1554876409       -1.2968201261
 C          9.8916251558       -0.7438328187       -2.6192702681
 C         10.7293379979       -1.2551203331       -3.5928974293
 C         11.7142739764       -2.1692239667       -3.2573687882
 C         11.8567046804       -2.5760565734       -1.9411257984
 C         11.0171422600       -2.0779599350       -0.9620830345
 C          2.7465435611       -1.2278483284       -0.2023119688
 C          1.3827906405       -1.1106517293       -0.0359553205
 C         -1.3456771202       -0.9153523287        1.0135883228
 C         -0.8836229214       -1.9603449759        1.8171075709
 C         -1.7198803408       -3.0164760737        2.1353303177
 C         -3.0318064705       -3.0458778033        1.6969847029
 C         -3.5044383021       -1.9997779320        0.9087583472
 C         -4.8994615372       -1.9195154468        0.4761527380
 N         -5.3074684697       -0.7389071062        0.0199383903
 C         -6.5864203461       -0.6516170206       -0.3251216378
 C         -7.0683952163        0.6493519568       -0.7906638888
 C         -8.3731697614        0.7949110744       -1.2560146000
 C         -8.8181329204        2.0299602207       -1.6868559047
 C         -7.9693527589        3.1258429364       -1.6546897758
 C         -6.6699788817        2.9872300860       -1.1910491657
 C         -6.2183129678        1.7545823020       -0.7612943192
 N         -7.4403436876       -1.6696360276       -0.2607453877
 C         -6.9440599294       -2.8178238394        0.1923190388
 C         -7.8411104065       -3.9702852222        0.2721528832
 C         -9.1880862791       -3.8360293771       -0.0583682137
 C        -10.0306486372       -4.9278077110        0.0195152740
 C         -9.5386922653       -6.1586154353        0.4257610658
 C         -8.1991607155       -6.2971856363        0.7550399399
 C         -7.3511029387       -5.2095893537        0.6798334523
 N         -5.6821259783       -2.9856670134        0.5847786466
 C         -2.6558212155       -0.9626764112        0.5492051036
 C         -2.2060098493        1.8502726006        1.2752753563
 C         -2.8845488984        3.0147610085        0.9877765105
 C         -3.7365145358        5.8725696639        0.5331134619
 C         -4.4778163175        6.9937753872        0.2105023739
 H         -5.3980191587        8.1248076523       -1.3582888922
 H         -4.6694441490        6.5712565227       -3.1325883077
 H         -3.3567840396        4.5738342302       -2.5606782127
 H         -1.1731480319        3.9717561187       -1.7585017214
 H          0.0290642180        1.8915580992       -1.2601499908
 H          1.2780280018        1.9948979608        1.2918526691
 H          3.7008159008        1.7839416804        0.9778275566
 H          4.9037019644       -1.2858926258       -1.9121757142
 H          7.3212321137       -1.5605376494       -2.2425476376
 H          5.5382903762        0.5704992217        1.8901055680
 H          7.7083800327        1.2526354675        3.4121079469
 H          9.9853133963        1.6121960442        4.3078182207
 H         11.9552915017        0.9362058250        3.0203808964
 H         11.7278252904       -0.1399037942        0.8154960429
 H          9.1362429089       -0.0148949426       -2.8723414377
 H         10.6170625356       -0.9317916676       -4.6171346552
 H         12.3692808698       -2.5630914640       -4.0195425187
 H         12.6202559044       -3.2921509506       -1.6758686936
 H         11.1101030514       -2.4091727827        0.0614090725
 H          3.1523605169       -2.1407830433       -0.6124732079
 H          0.7302021084       -1.9179536210       -0.3340189493
 H          0.1274486807       -1.9364288028        2.1959424872
 H         -1.3428783115       -3.8172706523        2.7545506635
 H         -3.6970511051       -3.8502722269        1.9656819926
 H         -9.0193065546       -0.0687945205       -1.2728301615
 H         -9.8295336626        2.1421905343       -2.0494785240
 H         -8.3203839273        4.0907763662       -1.9906344080
 H         -6.0100714900        3.8423182476       -1.1655197597
 H         -5.2105045228        1.6310811918       -0.3958854148
 H         -9.5528490344       -2.8703243337       -0.3712616661
 H        -11.0749341593       -4.8227650959       -0.2361265700
 H        -10.1999421272       -7.0108408095        0.4856736365
 H         -7.8182748993       -7.2574894830        1.0707696256
 H         -6.3054185289       -5.2975347887        0.9299498698
 H         -3.0405549658       -0.1839228117       -0.0893318863
 H         -2.4939382731        1.2523924713        2.1272298041
 H         -3.7099954660        3.3172180122        1.6150858006
 H         -3.4642370958        5.6854406869        1.5615247510
 H         -4.7924495320        7.6719981830        0.9904702164
  101
       -156.61307693
 C         -4.8331744695        7.3497747254       -1.7587198329
 C         -4.2611309519        6.4891707346       -2.6807401299
 C         -3.5054998162        5.4141647981       -2.2527869413
 C         -3.3077277641        5.1778937743       -0.8931364324
 C         -2.5313730173        4.0124962701       -0.4507644148
 C         -1.3973996944        3.5956454791       -1.1461078629
 C         -0.7236283700        2.4456515935       -0.7905800566
 C         -1.1670210989        1.6704265510        0.2806848536
 N         -0.5524592919        0.4505680409        0.5825427327
 C          0.8232332157        0.2859096091        0.3701313297
 C          1.7214411245        1.2744760020        0.7676820504
 C          3.0774740431        1.0903819074        0.5969895293
 C          3.5792294397       -0.0761052145        0.0213734296
 C          5.0273396024       -0.2846326992       -0.1076626625
 C          5.5652748968       -0.8634707606       -1.2652124453
 C          6.9201786428       -1.0761519908       -1.4167309756
 C          7.7603785677       -0.6994774487       -0.3780828427
 C          7.2335417179       -0.1430883276        0.8100381927
 C          5.8708614151        0.0709649263        0.9370638706
 C          8.3486661688        0.0757997083        1.6874550683
 C          8.4664660038        0.6036341256        2.9660975000
 C          9.7234644325        0.6984519155        3.5285257445
 C         10.8544266736        0.2886177602        2.8256175096
 C         10.7620660039       -0.2403722161        1.5523818809
 C          9.4989175951       -0.3608759984        0.9907237944
 N          9.1286387667       -0.8263616440       -0.2554346430
 C          9.9963685718       -1.3231498889       -1.2379282232
 C          9.9354612929       -0.8277538173       -2.5374227970
 C         10.7905416952       -1.3209992131       -3.5051743011
 C         11.7165279228       -2.3003021077       -3.1858414414
 C         11.7812873973       -2.7912448657       -1.8923931590
 C         10.9232194923       -2.3115981324       -0.9200679273
 C          2.6726753676       -1.0462762510       -0.4016180323
 C          1.3156445597       -0.8715345307       -0.2311501455
 C         -1.3242628817       -0.6382858239        0.9897136916
 C         -0.7897526981       -1.6307131967        1.8157338425
 C         -1.5661165041       -2.7049023139        2.2116413106
 C         -2.8899139409       -2.8056855486        1.8235163923
 C         -3.4356062558       -1.8093473825        1.0192074461
 C         -4.8477810535       -1.8201765130        0.6386112754
 N         -5.3831254192       -0.6485434141        0.3114630800
 C         -6.6826676524       -0.6574051942        0.0350763278
 C         -7.3237059711        0.6352663348       -0.2078541061
 C         -8.7042763208        0.7204711483       -0.3718588398
 C         -9.3004848386        1.9517308180       -0.5660202864
 C         -8.5273335848        3.1020904925       -0.6036380177
 C         -7.1517030628        3.0220476776       -0.4481514729
 C         -6.5499655365        1.7949276098       -0.2482042609
 N         -7.4195512409       -1.7639354570       -0.0192851590
 C         -6.7894717603       -2.8974284393        0.2766642089
 C         -7.5314183838       -4.1536936105        0.1771014981
 C         -8.8174383940       -4.1741598984       -0.3580680122
 C         -9.4992708625       -5.3706436083       -0.4690593459
 C         -8.9087996287       -6.5506916480       -0.0438853314
 C         -7.6304380682       -6.5344183120        0.4923641574
 C         -6.9408066833       -5.3429264780        0.6010028601
 N         -5.5154801152       -2.9659330009        0.6593753676
 C         -2.6512937561       -0.7495885717        0.5881096362
 C         -2.2585643265        2.1217018681        1.0248090323
 C         -2.9309635526        3.2673532283        0.6580637263
 C         -3.8874151111        6.0516753414        0.0247149574
 C         -4.6416971013        7.1275636229       -0.4051867473
 H         -5.4254813242        8.1885134810       -2.0933858115
 H         -4.4087264042        6.6542761938       -3.7382848161
 H         -3.0809900587        4.7349819049       -2.9774103857
 H         -1.0391819091        4.1795338467       -1.9811653377
 H          0.1390115713        2.1271342813       -1.3572268519
 H          1.3455155548        2.1812354753        1.2186125339
 H          3.7622727074        1.8650251717        0.9089969470
 H          4.8983004057       -1.1342950718       -2.0702848542
 H          7.3096056171       -1.5320774466       -2.3145612430
 H          5.4673334610        0.4825066816        1.8495969768
 H          7.5902360428        0.9345718414        3.5030444975
 H          9.8377984105        1.1036116662        4.5228538341
 H         11.8264476077        0.3901600116        3.2852257325
 H         11.6469982415       -0.5378153749        1.0103662186
 H          9.2277514707       -0.0477916453       -2.7758938882
 H         10.7392068096       -0.9319343013       -4.5112296698
 H         12.3856177615       -2.6797835319       -3.9430790967
 H         12.4980271674       -3.5586400784       -1.6402436477
 H         10.9546792422       -2.7083233950        0.0837369624
 H          3.0380727821       -1.9573575876       -0.8518786156
 H          0.6242339953       -1.6345973545       -0.5575203687
 H          0.2353998797       -1.5531427225        2.1464050908
 H         -1.1321598527       -3.4632964922        2.8465946586
 H         -3.5098390288       -3.6270009152        2.1444265092
 H         -9.2899283111       -0.1849347237       -0.3360399771
 H        -10.3719030173        2.0188210121       -0.6867448093
 H         -8.9975611960        4.0631403434       -0.7534051730
 H         -6.5496010740        3.9190865606       -0.4817533243
 H         -5.4818405442        1.7150904467       -0.1179334732
 H         -9.2592908086       -3.2466522761       -0.6872965491
 H        -10.4938764146       -5.3878072572       -0.8901848269
 H         -9.4444973114       -7.4846843833       -0.1322933703
 H         -7.1725131026       -7.4549097397        0.8239838272
 H         -5.9436388925       -5.3092991521        1.0111219311
 H         -3.0933614693       -0.0129026222       -0.0635061301
 H         -2.5925982623        1.5523164627        1.8792951801
 H         -3.7989130144        3.5727381521        1.2234542140
 H         -3.7307322951        5.8959147937        1.0821021230
 H         -5.0833819214        7.7968837115        0.3190269330
