  70
       -110.67320695
 C         -2.1424311784        4.5529873704       -0.1144636399
 C         -1.8224047299        3.7361758201        0.9571711350
 C         -2.2601843315        2.4244680841        0.9882516354
 C         -3.0224058026        1.9286121849       -0.0627986328
 N         -3.4321341181        0.5814210449       -0.0509669936
 C         -2.5816317764       -0.5032466015       -0.0818564609
 C         -1.1317820829       -0.4203255373       -0.1305512599
 C         -0.3952159874       -1.4089286716        0.5240929069
 C          0.9823022338       -1.3762246788        0.5232167726
 C          1.6718378895       -0.3553703333       -0.1311450189
 C          3.1380493115       -0.2997805921       -0.1058072373
 C          3.9039061304       -1.4600390738       -0.2183852663
 C          5.2804220989       -1.4018575834       -0.1863456518
 C          5.9386436229       -0.1812540541       -0.0329161197
 C          7.3893205169       -0.1531368347        0.0097690682
 C          8.2310069795        0.9422285378        0.1324060528
 N          9.4959238624        0.4549602281        0.1287561163
 C         10.6980443957        1.0695966659        0.2210896879
 C         11.8355390572        0.3229615641        0.1935582516
 C         11.7643504389       -1.0807503451        0.0693079031
 C         10.5534308930       -1.7062028286       -0.0256684065
 C          9.3825922507       -0.9344738001        0.0032467263
 N          8.1188240711       -1.2948452338       -0.0684985768
 C          5.1755224869        0.9804788836        0.0799987775
 C          3.7982522271        0.9197094462        0.0401750411
 C          0.9327613337        0.6109683862       -0.8112392438
 C         -0.4465621344        0.5789863417       -0.8199049741
 N         -3.2338006611       -1.6392855163       -0.0596121646
 C         -4.5518494149       -1.3153157318       -0.0186303539
 C         -5.6681046601       -2.1974869079       -0.0182160723
 C         -5.4955212672       -3.5845102519       -0.0736733036
 C         -6.5851646394       -4.4181830954       -0.1029797465
 C         -7.8663480751       -3.8703336763       -0.0820009607
 C         -8.0475435761       -2.5083677321       -0.0219700945
 C         -6.9592239228       -1.6233843143        0.0198130608
 C         -7.1173422278       -0.1828372673        0.1196737990
 C         -8.3822033996        0.4103369677        0.2373414862
 C         -8.5416896582        1.7685583498        0.3774109677
 C         -7.4277346972        2.6005966518        0.4232900718
 C         -6.1709567613        2.0610097268        0.3034932468
 C         -5.9876679557        0.6813866724        0.1311481785
 C         -4.7088975222        0.0700896651        0.0011087344
 C         -3.3429730320        2.7469723520       -1.1421831429
 C         -2.9038711078        4.0577776635       -1.1611374333
 H         -1.7980760571        5.5757462431       -0.1358273374
 H         -1.2303844574        4.1205343098        1.7738601404
 H         -2.0134188640        1.7773324411        1.8166237323
 H         -0.9297785922       -2.1941587459        1.0352659983
 H          1.5360610173       -2.1346161338        1.0563884135
 H          3.4099863924       -2.4109099609       -0.3546338340
 H          5.8785953688       -2.2943805492       -0.2788756237
 H          8.0272210277        1.9896354750        0.2164209179
 H         10.6940743991        2.1457467480        0.3141383954
 H         12.7944311504        0.8094085517        0.2674054418
 H         12.6780509752       -1.6534262480        0.0500029895
 H         10.4587146614       -2.7747579751       -0.1218872967
 H          5.6619129688        1.9360602705        0.2050425369
 H          3.2199421910        1.8260100130        0.1493916875
 H          1.4478062190        1.3845355922       -1.3617464429
 H         -0.9867738545        1.3233310845       -1.3844384923
 H         -4.4867954182       -3.9661061315       -0.0984696412
 H         -6.4565675254       -5.4895694847       -0.1466477969
 H         -8.7276459628       -4.5219950991       -0.1127835558
 H         -9.0575862477       -2.1307761113       -0.0107574682
 H         -9.2661161499       -0.2063999566        0.2288189224
 H         -9.5327594445        2.1885838755        0.4655623059
 H         -7.5493735853        3.6653363742        0.5573632604
 H         -5.3107621403        2.7083987377        0.3590611039
 H         -3.9338821128        2.3481563305       -1.9539321915
 H         -3.1515183771        4.6916964715       -1.9991964072
