108
 energy: -160.139369104937 gnorm: 0.000058593920 xtb: 6.7.1 (edcfbbe)
C            9.41864443908301        2.49295915185911        0.55663233003051
C            8.50837218582359        1.69162869651116        1.49424531520790
C            7.56429349939035        2.62686412126617        2.24543091229596
C            9.36455918626978        0.89187363800910        2.48315886143264
C            7.73241490673505        0.70786899216146        0.65802072268747
N            6.40999111420876        0.75333131111123        0.68112407322505
C            5.78543546737257       -0.14526979011745       -0.07433932843259
C            4.32426898490891       -0.13576499166794       -0.08081573945887
C            3.61501339519347       -1.04197679486826       -0.87271803821035
C            2.23783334462914       -1.02680400335666       -0.88862628662679
C            1.52549148757784       -0.11019089954942       -0.11394975476146
N            0.13801274418429       -0.09145156871308       -0.14413395509365
C           -0.65860780242890        1.03465974701725       -0.28814310627576
C           -0.29986016353432        2.34382029367664       -0.57162458263844
C           -1.30499776086802        3.27776206211660       -0.70121912985783
C           -2.65725213606588        2.93429653642174       -0.55425401225355
N           -3.63643062790525        3.92938846019754       -0.65921138666778
C           -3.39284792075175        5.19952841516448       -0.12276273106862
C           -2.66149498665711        5.34184769092518        1.05654642417545
C           -2.41724924068287        6.59834060586059        1.57533375218356
C           -2.90175837325264        7.72878698436132        0.93773915604250
C           -3.63085805302990        7.59251087833905       -0.23219166472728
C           -3.87260592840983        6.34108890234901       -0.76461977717012
C           -4.85957810145143        3.64837136903317       -1.27539329494394
C           -4.91518041827468        2.80795063530898       -2.38769418827957
C           -6.12549336631929        2.53129972216215       -2.99256592695676
C           -7.29693403267845        3.09049890778093       -2.50876512848383
C           -7.24764751290083        3.92808672825336       -1.40646394153512
C           -6.04338891662573        4.20367991205164       -0.78904201440337
C           -3.01700217072003        1.61128022398966       -0.32115734165242
C           -2.01639468126240        0.66043778037577       -0.20591466888470
C           -2.03851966092702       -0.76342216637739       -0.00512123615896
C           -3.06801390579730       -1.67654929824464        0.15147993075590
C           -2.75055998838040       -3.01464649730884        0.35986390641064
N           -3.76514569714119       -3.96645596522579        0.52600508716169
C           -3.61810563304430       -5.24208157840928       -0.02722615634496
C           -4.09404531590937       -6.36723466312081        0.64637752579403
C           -3.94605131955309       -7.62422269717730        0.09381501325252
C           -3.31613531971333       -7.78456572832486       -1.12962937639379
C           -2.83677448167154       -6.67151755544778       -1.80057769016934
C           -2.98757356136296       -5.40942647654082       -1.26049064748372
C           -4.92134492344057       -3.63742079010326        1.24191916731785
C           -4.85047545780588       -2.80226811393078        2.35691117371928
C           -5.99557607391251       -2.47745788224493        3.05742185042239
C           -7.22501271083762       -2.98294767544241        2.66761438361293
C           -7.30082749951100       -3.81500103629132        1.56272641550049
C           -6.16281249381811       -4.13810352158030        0.84982116087026
C           -1.40796016369173       -3.41540892504324        0.42145410968245
C           -0.37366073735359       -2.51857747985682        0.25237867138214
C           -0.69244338834038       -1.18928793038802        0.01910066716095
C            2.24059488126278        0.78939746523853        0.70257553155223
C            1.56728946838573        1.66486721097883        1.58609015856622
N            1.05151026843612        2.35562861941693        2.34216516616002
C            3.63073783319614        0.77497596007217        0.70684363876805
N            6.40605431418186       -1.05131328058944       -0.82466445177309
C            7.72889939032940       -1.02027106505118       -0.78869245315497
C            8.50255364726524       -2.01245480715393       -1.61765019277206
C            9.37696413573420       -1.22209454267963       -2.59805648261694
C            7.55589835021774       -2.93745671440024       -2.37822342136885
C            9.39491738673431       -2.82357242772142       -0.67140578807458
N            8.43085870367173       -0.16038294729810       -0.06238342242837
H            8.82458508094697        3.06733438769692       -0.15134939143851
H           10.03251263165029        3.18080479933432        1.13327643902359
H           10.06668825844500        1.82001140243909        0.00134461085272
H            8.13878862885053        3.33142656324978        2.84215961146644
H            6.91118247111255        2.05975638523343        2.90333902792940
H            6.94364036664666        3.18190014564659        1.54698790734955
H           10.01192231393197        0.20453463484503        1.94483177960557
H            8.73155341987268        0.31835599333412        3.15728888666963
H            9.97837811266350        1.56765364915145        3.07394923437174
H            4.16971352904756       -1.74095378198259       -1.47850385572550
H            1.69102203031073       -1.70782129174681       -1.52316099409056
H            0.73062733656692        2.63507005691701       -0.70576128716520
H           -1.05140941662217        4.30331708362341       -0.92263359438450
H           -2.28687836555751        4.46357125840172        1.56105560345963
H           -1.85004708486913        6.69321863033199        2.48936646415933
H           -2.71193579079680        8.70883905468130        1.34857764006979
H           -4.00721903023605        8.46827091962748       -0.74055988832226
H           -4.43177888179116        6.23877216798054       -1.68333512126051
H           -4.00233920389409        2.37859945205870       -2.77425876086087
H           -6.15273782505640        1.88067298553928       -3.85453949929781
H           -8.24050045272516        2.87509586894761       -2.98676014156919
H           -8.15627283891786        4.36431503728507       -1.01793386471394
H           -6.01027802691394        4.84860829502656        0.07676428956797
H           -4.05549124218933        1.33140673252354       -0.23322637548914
H           -4.09791591321175       -1.35599426969042        0.11957554446604
H           -4.57598870139842       -6.24687917637979        1.60556471207372
H           -4.31778266879803       -8.48663653199354        0.62750621919984
H           -3.19978453531193       -8.76907589539842       -1.55660562422704
H           -2.34900766985645       -6.78577598994802       -2.75768861409535
H           -2.62229297685657       -4.54212363287161       -1.79094437187130
H           -3.89240876087040       -2.41408101454969        2.67027922453358
H           -5.92521034919605       -1.83114484214320        3.91995747252396
H           -8.11706694008733       -2.73007238807137        3.22022600343697
H           -8.25559839723128       -4.20948557073499        1.24710492604210
H           -6.22730268618716       -4.77843211328726       -0.01779143176025
H           -1.18500783509942       -4.45432702943277        0.61309531312989
H            0.65090432044079       -2.84989507707599        0.32544125223101
H            4.18182600001682        1.46198113118529        1.33055637320808
H            9.98874112892560       -1.90430183977827       -3.18364630663450
H           10.02691792167493       -0.54269354298169       -2.05294949283992
H            8.75710365314036       -0.64049728495359       -3.27750891237780
H            8.12864694421766       -3.64718236126375       -2.97060798334956
H            6.92386102132941       -3.48653008812922       -1.68526826028975
H            6.91467570100978       -2.36239055959274       -3.04095584237224
H            8.78793945334176       -3.39367497682326        0.02904697296950
H           10.00956397726376       -3.51577808634136       -1.24204623441595
H           10.04224146988084       -2.15705488519911       -0.10768306691009
