  108
       -160.13927726
 C          9.4180754046        2.4981745155        0.5701974103
 C          8.5003077996        1.6986691015        1.5019433464
 C          7.5492277868        2.6350354328        2.2428476554
 C          9.3484248965        0.9019079693        2.5002610389
 C          7.7320398209        0.7118382308        0.6622412070
 N          6.4094646904        0.7513687741        0.6802362721
 C          5.7915034451       -0.1499024942       -0.0776321552
 C          4.3302656636       -0.1448130201       -0.0886720310
 C          3.6243268593       -1.0532928532       -0.8808887697
 C          2.2470189484       -1.0402989880       -0.9001636910
 C          1.5311232539       -0.1237341007       -0.1286607844
 N          0.1436463098       -0.1055376367       -0.1622471879
 C         -0.6516681885        1.0222992254       -0.3027920690
 C         -0.2927396946        2.3310591501       -0.5883375747
 C         -1.2973548606        3.2663278010       -0.7135752868
 C         -2.6494365677        2.9246711919       -0.5607361654
 N         -3.6286481858        3.9199208778       -0.6629492047
 C         -3.3858551284        5.1894208834       -0.1249373795
 C         -2.6497324444        5.3318393727        1.0513015739
 C         -2.4086267414        6.5881325778        1.5720663476
 C         -2.9006402311        7.7180493763        0.9393724602
 C         -3.6337990044        7.5816478806       -0.2280061465
 C         -3.8726754002        6.3305402134       -0.7622809150
 C         -4.8557337072        3.6359647776       -1.2701941432
 C         -4.9166347881        2.7965089224       -2.3829462863
 C         -6.1304780833        2.5155693696       -2.9786088839
 C         -7.3003241022        3.0694805268       -2.4849433929
 C         -7.2457517042        3.9063109535       -1.3823707908
 C         -6.0377857101        4.1862779863       -0.7741887648
 C         -3.0096071505        1.6022873835       -0.3253604073
 C         -2.0095664594        0.6506000537       -0.2143856054
 C         -2.0334730703       -0.7728784513       -0.0134390322
 C         -3.0650132883       -1.6823699616        0.1483112673
 C         -2.7511072536       -3.0214808787        0.3548051402
 N         -3.7698329193       -3.9676016584        0.5285031731
 C         -3.6411268218       -5.2416958212       -0.0315650161
 C         -4.1342149471       -6.3631575065        0.6360225818
 C         -4.0062242017       -7.6191730663        0.0764236261
 C         -3.3793237845       -7.7826694780       -1.1481388258
 C         -2.8826746852       -6.6735542610       -1.8129287238
 C         -3.0135369314       -5.4122251450       -1.2659227263
 C         -4.9189654956       -3.6263985058        1.2507744748
 C         -4.8303155473       -2.7993120337        2.3705095632
 C         -5.9673869741       -2.4592359486        3.0767368261
 C         -7.2064676179       -2.9412665973        2.6876348637
 C         -7.2998689710       -3.7656081910        1.5783581496
 C         -6.1696978675       -4.1041399935        0.8599870623
 C         -1.4095579688       -3.4266837456        0.4081049715
 C         -0.3730947098       -2.5328206765        0.2344842787
 C         -0.6883703044       -1.2020511156        0.0044452612
 C          2.2430069914        0.7778549897        0.6885964360
 C          1.5673688843        1.6540298108        1.5696571768
 N          1.0485011593        2.3445156446        2.3238290424
 C          3.6330732446        0.7655761840        0.6962155326
 N          6.4187679449       -1.0532956176       -0.8255676921
 C          7.7414801843       -1.0165577720       -0.7841553058
 C          8.5233102594       -2.0014021901       -1.6141724470
 C          9.3526879410       -1.1995959877       -2.6244843565
 C          7.5857425367       -2.9613482380       -2.3418275059
 C          9.4594353173       -2.7750569515       -0.6795318895
 N          8.4369056876       -0.1535103426       -0.0554101006
 H          8.8297352053        3.0712967956       -0.1435554235
 H         10.0274584245        3.1870225869        1.1503820611
 H         10.0703707399        1.8240623200        0.0213488694
 H          8.1180929207        3.3409738457        2.8433303391
 H          6.8904601281        2.0689528491        2.8959642828
 H          6.9346704242        3.1885537409        1.5378209120
 H         10.0015523143        0.2142154506        1.9693820005
 H          8.7099900087        0.3290476747        3.1698139765
 H          9.9559336049        1.5797236610        3.0952341631
 H          4.1814626037       -1.7525795834       -1.4840939340
 H          1.7029832520       -1.7230621162       -1.5352148118
 H          0.7374573844        2.6210844435       -0.7274506157
 H         -1.0435166042        4.2915543100       -0.9362596156
 H         -2.2693419406        4.4539436777        1.5521350727
 H         -1.8378638133        6.6831974627        2.4838429715
 H         -2.7135786886        8.6978587028        1.3520623504
 H         -4.0163248161        8.4570273005       -0.7324242519
 H         -4.4363310186        6.2278008146       -1.6781652782
 H         -4.0050957017        2.3710634241       -2.7768168543
 H         -6.1618961055        1.8657567771       -3.8410351514
 H         -8.2467683774        2.8504481900       -2.9555230115
 H         -8.1530862046        4.3381618478       -0.9860275118
 H         -6.0005670920        4.8300337100        0.0923186390
 H         -4.0479276833        1.3233758974       -0.2325683756
 H         -4.0938913292       -1.3580579389        0.1221659004
 H         -4.6140351522       -6.2406781706        1.5959887349
 H         -4.3915511447       -8.4785254785        0.6054005567
 H         -3.2785479276       -8.7664846237       -1.5806388796
 H         -2.3967271456       -6.7901209066       -2.7706891023
 H         -2.6351119412       -4.5479786888       -1.7921230368
 H         -3.8647398074       -2.4288012812        2.6822848451
 H         -5.8834197365       -1.8190920630        3.9426402506
 H         -8.0924452437       -2.6758821630        3.2441467156
 H         -8.2622869298       -4.1415331497        1.2633135263
 H         -6.2477430292       -4.7380788543       -0.0112011171
 H         -1.1889786812       -4.4666236350        0.5970507335
 H          0.6506375180       -2.8679567171        0.3017917560
 H          4.1814997091        1.4547805006        1.3198285692
 H          9.9685247109       -1.8723054346       -3.2167226332
 H          9.9970170422       -0.4966448078       -2.1029967300
 H          8.7014593537       -0.6429817058       -3.2953924099
 H          8.1647255771       -3.6660448997       -2.9341286485
 H          6.9809710316       -3.5149206605       -1.6283577982
 H          6.9179218006       -2.4128405216       -3.0006227036
 H          8.8850438297       -3.3527151280        0.0417905342
 H         10.0799290147       -3.4571601333       -1.2559167813
 H         10.1002938546       -2.0836362972       -0.1391303014
