108
 energy: -160.139203211879 gnorm: 0.000049084432 xtb: 6.7.1 (edcfbbe)
C            8.86041894108109        2.70466303541802        0.61045644091989
C            7.97939064596634        1.87207872421734        1.54899573720643
C            7.02135982953239        2.77572018190291        2.32079343363243
C            8.86615643227829        1.08167959514138        2.51813888519917
C            7.21915085170617        0.88060477665359        0.70820633197241
N            5.89838147025291        0.90143326154364        0.72999014705939
C            5.29031162461110       -0.00673732859501       -0.03150757398887
C            3.82875521030718       -0.02248738371412       -0.03541582637647
C            3.13261165343817       -0.94967453689392       -0.81426808288471
C            1.75538999711621       -0.95866929946750       -0.82670970380637
C            1.02948300381536       -0.04406963214486       -0.06247534260168
N           -0.35822077587696       -0.04894965577907       -0.09069830546447
C           -1.17396841483469        1.06053388772702       -0.25569695698826
C           -0.83784898401449        2.37135006654752       -0.55862644538327
C           -1.85928725102274        3.28440479003741       -0.70918856360245
C           -3.20579002222628        2.91830301959502       -0.56464109796995
N           -4.20382473597313        3.89133041089442       -0.69600691545440
C           -3.99241918146147        5.17581619256516       -0.18108998563628
C           -3.27307245534496        5.35581848214519        1.00044382614270
C           -3.06185664304482        6.62660056634451        1.49854013080964
C           -3.56768593956267        7.73409358128329        0.83765653067543
C           -4.28451619776429        7.56037664125310       -0.33490212534834
C           -4.49336789450632        6.29451830638575       -0.84664017170687
C           -5.41501145726537        3.57242568930691       -1.31762413337468
C           -5.44142591636752        2.71264702184655       -2.41611917910119
C           -6.63972406250134        2.39742658761093       -3.02597432485924
C           -7.82801424804723        2.93660489865734       -2.56087990694613
C           -7.80771243456530        3.79341945988776       -1.47253002106842
C           -6.61547940889575        4.10778699298078       -0.85026138129225
C           -3.54232079050884        1.59336396037126       -0.30912177951336
C           -2.52514926184061        0.66338544883887       -0.17217593707568
C           -2.52286964891526       -0.75679620348201        0.05329226520885
C           -3.53677192491075       -1.68456931269505        0.22386046893986
C           -3.19694400479304       -3.01297335599099        0.45747959018074
N           -4.19641067301683       -3.97727907172677        0.64137147508322
C           -4.03058639921815       -5.26183825971289        0.11527137140600
C           -4.49600911229384       -6.37847493555560        0.81016485751637
C           -4.33102768499899       -7.64475310028682        0.28436853617275
C           -3.69424633958024       -7.82286921314950       -0.93305434727169
C           -3.22508521066563       -6.71831437732981       -1.62490879567463
C           -3.39285046193212       -5.44716417116199       -1.11169184155236
C           -5.35942632744356       -3.64986157120975        1.34743882582146
C           -5.30233883811591       -2.79551897006173        2.44855160527425
C           -6.45388564280702       -2.47167901787775        3.13886604233957
C           -7.67604182425897       -2.99698764097427        2.75233850786247
C           -7.73807007036950       -3.84827484744267        1.66132737940422
C           -6.59348561817047       -4.17090416976072        0.95874766265040
C           -1.84777553110688       -3.38947739058544        0.52808588770282
C           -0.82868571121222       -2.47794355610775        0.34503420622224
C           -1.16969738955565       -1.15848251611666        0.08840516494625
C            1.73121301990649        0.87781673653914        0.74047308006426
C            1.04430209676150        1.75454650324702        1.61221974510999
N            0.51619271488108        2.44775919786814        2.35741674448736
C            3.12145828269245        0.88599641942069        0.74248188428621
N            5.92740832062410       -0.89426032106592       -0.78487779987438
C            7.25399282363595       -0.83631857898269       -0.74931356434338
C            8.00598136085047       -1.82498483588844       -1.60223177892680
C            9.51256374832392       -1.63833434839630       -1.44434026562004
C            7.59160541304350       -1.59676726836471       -3.06068302291336
C            7.59531186628953       -3.23551711159296       -1.16432154783956
N            7.93639848924125        0.02893658012711       -0.01914554522983
H            8.24536503320716        3.27396594597248       -0.08365484557193
H            9.46539293714836        3.39929788202186        1.18832094867358
H            9.51656173447609        2.05194878923744        0.04068107703536
H            7.58519727754013        3.48490734040300        2.92217227623562
H            6.38680787506131        2.18533597654408        2.97646596130453
H            6.38237638835031        3.32605968700214        1.63529053622186
H            9.52193458576037        0.41615513812892        1.96292451885695
H            8.25516806978328        0.48645630015899        3.19384969014628
H            9.47161114646722        1.76514771416610        3.10868733159134
H            3.69640098748293       -1.64686974620831       -1.41356302294645
H            1.21869928954231       -1.65735664578790       -1.45061400748012
H            0.18782722218189        2.67939261611797       -0.69211341429878
H           -1.62335074275409        4.31063441107493       -0.94647362286636
H           -2.88219752012561        4.49543301806422        1.52313214546896
H           -2.50397519777274        6.75075435364065        2.41480606504706
H           -3.40389557539952        8.72533869105623        1.23252067125452
H           -4.67716747394625        8.41806604084753       -0.86143091751984
H           -5.04319107172416        6.16306350057808       -1.76728622691629
H           -4.51548648387867        2.29852287535796       -2.78786983319867
H           -6.64440072437508        1.73212432994395       -3.87709267030273
H           -8.76222764221635        2.69080731268080       -3.04256182529141
H           -8.72961784227766        4.21426530886448       -1.09860728493123
H           -6.60472313158131        4.76764820175830        0.00479434629555
H           -4.57595562156537        1.29591850132245       -0.22171085892500
H           -4.57191717118214       -1.38233842987509        0.18411734829736
H           -4.98343448339018       -6.24402519388150        1.76469725975397
H           -4.69493694911094       -8.50025638045179        0.83432269287608
H           -3.56479733236928       -8.81452120128395       -1.33921873298311
H           -2.73213756976880       -6.84657588691360       -2.57758765939129
H           -3.03572984200498       -4.58677012887052       -1.65869600616060
H           -4.34987493982207       -2.39147985542856        2.75896795952327
H           -6.39431789007726       -1.81035063191463        3.99076046884496
H           -8.57320745285164       -2.74450285841809        3.29679431124343
H           -8.68716510616123       -4.25824024504026        1.34834306196929
H           -6.64703850911968       -4.82647799011832        0.10183363298196
H           -1.60731121471349       -4.42080541620241        0.73864730030384
H            0.20133366992721       -2.79019299228633        0.42559649211731
H            3.66229624611515        1.58953965520232        1.35663696028727
H           10.04208793877920       -2.35682075870804       -2.06566650142216
H            9.80662161237106       -1.78413927874558       -0.40847697816671
H            9.80374608960801       -0.63424456131021       -1.74049269922801
H            8.07720412124253       -2.32724097423093       -3.70351580384057
H            6.51406092751111       -1.69543850881731       -3.16311500798582
H            7.88168140246285       -0.59994242095994       -3.38671052589589
H            6.51764976175382       -3.35246721114942       -1.24280222843768
H            8.07937211935835       -3.97638602101765       -1.79632938505014
H            7.88972974476721       -3.41385028677090       -0.13206449216318
