  68
       -103.02198647
 C         -7.3363992828        1.2008476551        0.1728570644
 C         -6.4179881554       -0.0228694274       -0.0040200854
 C         -7.2629006493       -1.2976886473       -0.1875536344
 C         -5.5705529924       -0.1790189568        1.2408307326
 C         -6.1831790641       -0.3648780642        2.4719660827
 C         -5.4536395756       -0.5104121404        3.6378294427
 C         -4.0689633218       -0.4683368872        3.5864510851
 C         -3.4332096944       -0.2869454684        2.3793675330
 C         -4.1687374338       -0.1442419156        1.1942305549
 N         -3.5012156701        0.0322684662        0.0024487549
 C         -2.0760525765        0.0311274334        0.0021496300
 C         -1.3716166732        1.2348833594        0.0919502527
 C         -0.0007764596        1.2320244329        0.0915573316
 C          0.7184528670        0.0202926109        0.0023920145
 C          2.1353616993        0.0113277866        0.0025817152
 N          2.8265935858        1.1755997288        0.0799049067
 C          4.1328617644        1.1384346328        0.0720720227
 C          4.8796610353        2.3871316435        0.1485877556
 C          4.2096088808        3.6075286874        0.2493894929
 C          4.9237710059        4.7857493564        0.3214239187
 C          6.3108459955        4.7646916876        0.2934371198
 C          6.9822501409        3.5556246042        0.1927959128
 C          6.2749366325        2.3725250301        0.1209615381
 N          4.8311486315       -0.0125386846       -0.0036324543
 C          4.1129275440       -1.1515522991       -0.0734658777
 C          4.8350909725       -2.4144124520       -0.1499528046
 C          4.1401272265       -3.6234090327       -0.2115603965
 C          4.8300567361       -4.8159107444       -0.2832744176
 C          6.2175314595       -4.8206478993       -0.2948355639
 C          6.9135954756       -3.6230804815       -0.2333585488
 C          6.2304943220       -2.4257689917       -0.1609980830
 N          2.8064011581       -1.1642905900       -0.0751578215
 C         -0.0104252773       -1.1857223883       -0.0875987250
 C         -1.3807975759       -1.1780369609       -0.0881149135
 C         -4.1697507065        0.1932157704       -1.1908938979
 C         -3.4350538706        0.3701708881       -2.3719618577
 C         -4.0720631260        0.5378281405       -3.5803241556
 C         -5.4571475202        0.5296492570       -3.6374587136
 C         -6.1856640165        0.3492118702       -2.4758528140
 C         -5.5717176568        0.1790308551       -1.2430892957
 H         -7.9645269380        1.0893129727        1.0517606530
 H         -6.7352251459        2.1001822015        0.2912346040
 H         -7.9803106053        1.3290094423       -0.6921953738
 H         -7.8988304422       -1.4674364950        0.6766136877
 H         -6.6100385953       -2.1599276597       -0.3091394579
 H         -7.8950734903       -1.2188418180       -1.0672565166
 H         -7.2601987639       -0.3989475653        2.5300302991
 H         -5.9620949670       -0.6541650851        4.5786225104
 H         -3.4857046741       -0.5770462686        4.4879679125
 H         -2.3564428143       -0.2518879741        2.3367576892
 H         -1.9238979923        2.1613023680        0.1615634174
 H          0.5561258095        2.1530503422        0.1606682196
 H          3.1307482244        3.6080365692        0.2701099144
 H          4.4014595061        5.7283144091        0.4002648016
 H          6.8667772637        5.6890804526        0.3503468270
 H          8.0623990861        3.5396843812        0.1710631113
 H          6.7821503060        1.4235337833        0.0427181063
 H          3.0613736016       -3.6039528893       -0.2014872061
 H          4.2885877241       -5.7495965308       -0.3306826125
 H          6.7541054271       -5.7564623747       -0.3511436586
 H          7.9939583468       -3.6270544849       -0.2421403168
 H          6.7572939147       -1.4854530532       -0.1126129398
 H          0.5394453522       -2.1108734885       -0.1568658967
 H         -1.9405467605       -2.0999198396       -0.1561365367
 H         -2.3578671099        0.3725413281       -2.3249560257
 H         -3.4894179264        0.6736125852       -4.4785719374
 H         -5.9666246657        0.6602836325       -4.5796183512
 H         -7.2629895029        0.3409616493       -2.5387663510
  68
       -103.02190056
 C         -7.1954988452        1.3936256573        0.3441578073
 C         -6.4149609763        0.1060110822        0.0188876826
 C         -7.3931207952       -1.0456045064       -0.2797915919
 C         -5.5749850548       -0.2629722339        1.2231977952
 C         -6.1950124094       -0.5485734774        2.4314657914
 C         -5.4735845103       -0.8699389856        3.5665971214
 C         -4.0888300894       -0.8977294919        3.5093115381
 C         -3.4458122790       -0.6150282181        2.3257234858
 C         -4.1736335838       -0.3056850936        1.1677800737
 N         -3.5002940255       -0.0364358321       -0.0042662568
 C         -2.0765690453       -0.0417319456       -0.0051189273
 C         -1.3785865725        1.1690318091        0.0397845814
 C         -0.0084879018        1.1755024685        0.0358685858
 C          0.7190650144       -0.0338819039       -0.0109322334
 C          2.1358742034       -0.0276621278       -0.0108709535
 N          2.8099104084        1.1484182656        0.0233010136
 C          4.1165807252        1.1311603414        0.0197860208
 C          4.8432565405        2.3937236417        0.0380858749
 C          4.1527657794        3.6068720415        0.0530900661
 C          4.8472329109        4.7988953716        0.0638977395
 C          6.2348766152        4.7989770046        0.0600737246
 C          6.9264655672        3.5972648096        0.0467227741
 C          6.2388239989        2.4003549684        0.0359919138
 N          4.8309490233       -0.0120439550        0.0007853486
 C          4.1294888203       -1.1631067925       -0.0281772578
 C          4.8718152457       -2.4166617209       -0.0417729932
 C          4.1967557346       -3.6382596885       -0.0646949514
 C          4.9061744340       -4.8215767107       -0.0689688129
 C          6.2934623819       -4.8042964060       -0.0504012462
 C          6.9698688259       -3.5939383096       -0.0293604140
 C          6.2672956717       -2.4058011867       -0.0252697049
 N          2.8231454083       -1.1963357742       -0.0433316708
 C         -0.0020592109       -1.2471938676       -0.0566272170
 C         -1.3726593152       -1.2487139908       -0.0551859070
 C         -4.1651342275        0.2649211775       -1.1732071114
 C         -3.4295172123        0.4755096961       -2.3484204281
 C         -4.0612117598        0.7910853810       -3.5296643979
 C         -5.4426505682        0.9003806102       -3.5660149148
 C         -6.1734116941        0.6768086679       -2.4134378233
 C         -5.5648030055        0.3527770622       -1.2091122774
 H         -6.5012128135        2.2035875174        0.5596035379
 H         -7.8184673623        1.6892716502       -0.4951061598
 H         -7.8337706758        1.2490159576        1.2110626406
 H         -8.0234135344       -0.8075515307       -1.1314396448
 H         -8.0356248039       -1.2387002040        0.5740799809
 H         -6.8380038875       -1.9539320005       -0.5055693877
 H         -7.2717444903       -0.5178815816        2.4967079972
 H         -5.9878942515       -1.0896282107        4.4894002295
 H         -3.5106936781       -1.1373863035        4.3885198133
 H         -2.3687539745       -0.6274822490        2.2828339319
 H         -1.9369470024        2.0936574965        0.0789224074
 H          0.5422156916        2.1020401772        0.0729574285
 H          3.0738300078        3.5907479671        0.0560987085
 H          4.3091891115        5.7358362374        0.0751473205
 H          6.7752619489        5.7342699240        0.0670693337
 H          8.0068978505        3.5978059123        0.0434405398
 H          6.7619645166        1.4569063837        0.0240110544
 H          3.1177668856       -3.6357208712       -0.0781478484
 H          4.3799060935       -5.7651385347       -0.0860496505
 H          6.8456581584       -5.7326676730       -0.0522417105
 H          8.0501374104       -3.5809803655       -0.0160438043
 H          6.7782334004       -1.4557084568       -0.0087741710
 H          0.5537249153       -2.1706150185       -0.0965600459
 H         -1.9257060739       -2.1765794425       -0.0934347647
 H         -2.3557331854        0.3837709503       -2.3202503106
 H         -3.4770439439        0.9503145861       -4.4230256499
 H         -5.9478670882        1.1519563567       -4.4856896519
 H         -7.2483204782        0.7595575906       -2.4603944743
  68
       -103.02180725
 C         -7.3189852326        1.1854133743        0.3985696101
 C         -6.4178362748        0.0058688136       -0.0121191001
 C         -7.2799514427       -1.1972794648       -0.4383804023
 C         -5.5759621787       -0.3963298054        1.1796617179
 C         -6.1972830987       -0.8037679741        2.3516829504
 C         -5.4769312444       -1.1586505245        3.4774772708
 C         -4.0927825474       -1.0930882873        3.4485482643
 C         -3.4488832165       -0.6943506541        2.2993063478
 C         -4.1737672603       -0.3586099590        1.1466504531
 N         -3.4980977022        0.0175105941        0.0049664390
 C         -2.0754903342        0.0114044685        0.0097004835
 C         -1.3673077194        1.2167801522        0.0551624573
 C          0.0027932700        1.2124904132        0.0516568877
 C          0.7217158225       -0.0025234428        0.0109031495
 C          2.1384322866       -0.0083377753        0.0088048054
 N          2.8228091930        1.1617559124        0.0007254650
 C          4.1291233320        1.1325858331       -0.0192795769
 C          4.8658578256        2.3885370549       -0.0605290462
 C          6.2609013875        2.3841938126       -0.0992604087
 C          6.9567614758        3.5754013707       -0.1462213323
 C          6.2742918109        4.7824710714       -0.1540340424
 C          4.8873549405        4.7933818512       -0.1143364458
 C          4.1846920934        3.6070877139       -0.0684562948
 N          4.8336957300       -0.0172603073       -0.0028515304
 C          4.1219489563       -1.1614996420        0.0216925374
 C          4.8527251184       -2.4218296251        0.0584861474
 C          4.1661274650       -3.6359273540        0.1109732662
 C          4.8643954455       -4.8251029192        0.1533873142
 C          6.2518638643       -4.8210927783        0.1434681073
 C          6.9396596987       -3.6182742890        0.0906437665
 C          6.2481682542       -2.4243301936        0.0486830716
 N          2.8152569612       -1.1840201380        0.0133049501
 C         -0.0089567144       -1.2104050472       -0.0290225976
 C         -1.3791149995       -1.2009164132       -0.0336283485
 C         -4.1632986894        0.3976411560       -1.1417536820
 C         -3.4281075619        0.7465951378       -2.2839806584
 C         -4.0621401894        1.1502359217       -3.4369357111
 C         -5.4463490088        1.2058082501       -3.4809707028
 C         -6.1765830132        0.8368290755       -2.3662265320
 C         -5.5653360321        0.4267921649       -1.1898299457
 H         -7.9492460224        1.4970044920       -0.4290335641
 H         -7.9606316179        0.9107470531        1.2305480541
 H         -6.7056870731        2.0315565869        0.7020144024
 H         -7.9093751459       -0.9405449368       -1.2853656694
 H         -7.9198106511       -1.5220637590        0.3767853088
 H         -6.6393095002       -2.0286164163       -0.7256242327
 H         -7.2746357760       -0.8449452058        2.3947748945
 H         -5.9919333344       -1.4744694138        4.3714419026
 H         -3.5153150310       -1.3514046950        4.3229849680
 H         -2.3729348622       -0.6338053449        2.2813958259
 H         -1.9176544268        2.1462174186        0.0948620581
 H          0.5602199231        2.1350043742        0.0877870696
 H          6.7772092163        1.4371560702       -0.0945729089
 H          8.0366611630        3.5673995375       -0.1771992581
 H          6.8214105588        5.7131000880       -0.1904758580
 H          4.3558804090        5.7341733641       -0.1199817394
 H          3.1059540414        3.5996346917       -0.0391128306
 H          3.0871791455       -3.6231588175        0.1198676723
 H          4.3293246013       -5.7628989945        0.1948627290
 H          6.7951538184       -5.7540717788        0.1762926888
 H          8.0200920812       -3.6155358865        0.0833530527
 H          6.7681902460       -1.4798991788        0.0087883789
 H          0.5392832319       -2.1385071525       -0.0642819803
 H         -1.9387744641       -2.1248121400       -0.0726820907
 H         -2.3519243897        0.6927203522       -2.2553567548
 H         -3.4768581344        1.4186436523       -4.3029847361
 H         -5.9536694647        1.5245867024       -4.3782761238
 H         -7.2538312671        0.8685668664       -2.4218952417
  68
       -103.02167473
 C         -7.3021760536        1.1907998300        0.4659457431
 C         -6.4179120842        0.0226150219       -0.0089944758
 C         -7.2972062701       -1.1456074479       -0.4937110599
 C         -5.5771227388       -0.4488953496        1.1578964912
 C         -6.2003587329       -0.9140495713        2.3072714071
 C         -5.4818502747       -1.3261994006        3.4144209538
 C         -4.0977031819       -1.2572351427        3.3914588699
 C         -3.4519958567       -0.8032015051        2.2640250717
 C         -4.1747636852       -0.4145135688        1.1266331282
 N         -3.4975666179        0.0094247529        0.0022197472
 C         -2.0756452893        0.0021384214        0.0069204405
 C         -1.3675082448        1.2074280198        0.0653311246
 C          0.0023514880        1.2038881187        0.0611076973
 C          0.7220087936       -0.0105015835        0.0101083849
 C          2.1385895830       -0.0143572225        0.0082661897
 N          2.8203694708        1.1579160967       -0.0171092772
 C          4.1263905686        1.1306986936       -0.0403350744
 C          4.8606386547        2.3872179635       -0.1130887071
 C          6.2559257200        2.3849032676       -0.1337962753
 C          6.9499949733        3.5754242641       -0.2139889606
 C          6.2650382961        4.7795216742       -0.2739600086
 C          4.8777037915        4.7883304166       -0.2529438259
 C          4.1768645856        3.6026365391       -0.1735074479
 N          4.8343691786       -0.0161570102       -0.0008331884
 C          4.1249572313       -1.1617146129        0.0446392007
 C          4.8584826387       -2.4189314033        0.1132012905
 C          4.1744345460       -3.6337719609        0.1823332845
 C          4.8751261871       -4.8198020457        0.2581375859
 C          6.2626291415       -4.8120446962        0.2664199643
 C          6.9478798296       -3.6086043515        0.1975163142
 C          6.2539486085       -2.4177201800        0.1211269249
 N          2.8183436892       -1.1873439788        0.0304708851
 C         -0.0081114135       -1.2184691184       -0.0406540450
 C         -1.3782186680       -1.2094229124       -0.0482021470
 C         -4.1622640774        0.4429631157       -1.1260472189
 C         -3.4275736780        0.8269795780       -2.2574289166
 C         -4.0605783159        1.2905144001       -3.3882386234
 C         -5.4437315613        1.3736042334       -3.4209122190
 C         -6.1742408199        0.9657944442       -2.3199926981
 C         -5.5639584693        0.4918894291       -1.1671831189
 H         -7.9388281663        0.8833845950        1.2904408931
 H         -6.6768893385        2.0150461970        0.8034765227
 H         -7.9368640396        1.5483763857       -0.3395194690
 H         -7.9233285634       -0.8378888089       -1.3261562872
 H         -7.9415303824       -1.5020412698        0.3046969727
 H         -6.6681480701       -1.9702762904       -0.8232317058
 H         -7.2779385144       -0.9559482088        2.3470366166
 H         -5.9980962270       -1.6866221144        4.2906639949
 H         -3.5216437895       -1.5554117781        4.2540014240
 H         -2.3760864282       -0.7395168801        2.2526154927
 H         -1.9183611721        2.1360518259        0.1160582811
 H          0.5598026030        2.1259956909        0.1070122945
 H          6.7736527581        1.4395442032       -0.0871225319
 H          8.0302867559        3.5690867442       -0.2296545216
 H          6.8104397032        5.7097624731       -0.3369544273
 H          4.3447622151        5.7270399162       -0.3006674464
 H          3.0979360161        3.5933649326       -0.1585439595
 H          3.0954223414       -3.6235690388        0.1770618183
 H          4.3419998350       -5.7580152943        0.3128375655
 H          6.8078747733       -5.7425096049        0.3274146035
 H          8.0282844526       -3.6029789360        0.2042042298
 H          6.7722410197       -1.4729973142        0.0681736755
 H          0.5406339371       -2.1458835419       -0.0849404824
 H         -1.9372362950       -2.1331308421       -0.0997791577
 H         -2.3525287002        0.7517330833       -2.2390499695
 H         -3.4753290887        1.5848804071       -4.2459027446
 H         -5.9499836003        1.7418578296       -4.2997404867
 H         -7.2510362918        1.0182055050       -2.3675376250
  68
       -103.01966563
 C         -6.1414342734        2.0874109125        0.3112478308
 C         -6.2892388546        0.5655812280        0.0783983292
 C         -7.7803851772        0.2247301412        0.0164511431
 C         -5.5886544663       -0.1196186751        1.2346211321
 C         -6.2419141096       -0.4544402778        2.4097812522
 C         -5.5558625431       -0.9391713168        3.5111587274
 C         -4.1782928855       -1.0734689313        3.4597549234
 C         -3.5027021513       -0.7614549372        2.3006377606
 C         -4.1962719133       -0.3074612935        1.1729773267
 N         -3.5129401296       -0.0618737658        0.0007206743
 C         -2.0891476365       -0.0749345326       -0.0026057428
 C         -1.3997610535        1.1382407622        0.0572227448
 C         -0.0291274120        1.1539669967        0.0543950706
 C          0.7064185742       -0.0490075452       -0.0111825315
 C          2.1231914171       -0.0310784511       -0.0103395188
 N          2.7849950498        1.1512767765        0.0618086491
 C          4.0915083481        1.1479000991        0.0663588596
 C          4.8025016243        2.4176221479        0.1442646903
 C          4.0957422009        3.6203040685        0.1945110285
 C          4.7737166436        4.8195397778        0.2692439965
 C          6.1609038891        4.8368244270        0.2956551226
 C          6.8686423977        3.6454506562        0.2458649970
 C          6.1974278050        2.4415015430        0.1701545145
 N          4.8188200118        0.0153715610        0.0042720659
 C          4.1299804416       -1.1425597228       -0.0693566008
 C          4.8868790889       -2.3845767718       -0.1419451594
 C          4.2270238476       -3.6121755212       -0.2242292830
 C          4.9510689022       -4.7844662857       -0.2935791889
 C          6.3381535869       -4.7507417956       -0.2815409588
 C          6.9995679757       -3.5346302363       -0.1997174724
 C          6.2824295457       -2.3573866881       -0.1305080008
 N          2.8239157048       -1.1889076408       -0.0790604227
 C         -0.0064032178       -1.2662313541       -0.0770309391
 C         -1.3768455788       -1.2768345847       -0.0729463783
 C         -4.1851248776        0.0418071783       -1.1991440050
 C         -3.4796827248       -0.0923794916       -2.4004314007
 C         -4.1398326056       -0.0483755469       -3.6084512167
 C         -5.5138757463        0.1249008023       -3.6359574753
 C         -6.2125181323        0.2810755201       -2.4502141603
 C         -5.5746380447        0.2522849693       -1.2203988752
 H         -6.6280412271        2.3720365909        1.2412738919
 H         -5.0914983182        2.3635325748        0.3725232890
 H         -6.5961938375        2.6366092332       -0.5099444115
 H         -8.2765924427        0.5091359257        0.9392111155
 H         -7.9247986668       -0.8400660451       -0.1510619396
 H         -8.2658120412        0.7783108432       -0.7813858454
 H         -7.3091610587       -0.3309351588        2.4901593785
 H         -6.0959395116       -1.1923942772        4.4104502701
 H         -3.6308853226       -1.4255116774        4.3206448773
 H         -2.4311108239       -0.8702604991        2.2530804087
 H         -1.9625811370        2.0596007084        0.1074645155
 H          0.5154646965        2.0835275253        0.1035136068
 H          3.0172500153        3.5909459590        0.1730368871
 H          4.2230981396        5.7483953860        0.3072846454
 H          6.6885615946        5.7774644895        0.3549216686
 H          7.9488067274        3.6594615449        0.2672917005
 H          6.7331765535        1.5058191321        0.1322229727
 H          3.1480732016       -3.6225937621       -0.2324960430
 H          4.4363461054       -5.7322195521       -0.3573558014
 H          6.9015436771       -5.6707555637       -0.3355295967
 H          8.0796753828       -3.5085113887       -0.1903359322
 H          6.7818757194       -1.4033118657       -0.0667950627
 H          0.5555890691       -2.1853244767       -0.1320274097
 H         -1.9240973300       -2.2075732769       -0.1274343496
 H         -2.4118234811       -0.2395761162       -2.3706200157
 H         -3.5839804364       -0.1553206919       -4.5273141898
 H         -6.0418806626        0.1518734835       -4.5767077704
 H         -7.2772196282        0.4370507261       -2.5042551824
