  112
  -173.804830190000       0.626279508335348      !
 C         -1.4799694001       -7.3864251757        0.5685089952
 C         -0.6074416773       -6.4369197014       -0.2643312151
 C         -0.7826904522       -6.7998450529       -1.7414289829
 C          0.8706717323       -6.6275500507        0.1047209328
 C         -1.0096958752       -5.0028473786        0.0377474826
 C         -0.9069996070       -4.5206436247        1.3408760326
 C         -1.2608414219       -3.2262581645        1.6644179079
 C         -1.7349322435       -2.3693560582        0.6786681329
 N         -2.0512520829       -1.0376073604        1.0185424105
 C         -1.1457799201       -0.1852915884        1.6050128379
 C          0.2774669741       -0.4497256698        1.7279527843
 C          0.9560007600       -0.0057610337        2.8625436260
 C          2.3266835067       -0.1242541528        2.9531138625
 C          3.0645488052       -0.6712727529        1.9033532556
 C          4.5283870267       -0.5995282766        1.8460402271
 C          5.2731589786       -1.5379348385        1.1270255558
 C          6.5619951483       -1.2472930130        0.7252779287
 C          7.1316321450       -0.0360001878        1.0779168836
 S          8.2574380311        0.7364713497       -0.0980664874
 O          9.0012943529        1.8123227800        0.5028451886
 O          8.9832241973       -0.2489482266       -0.8562497123
 C          6.8344442970        1.3604635336       -1.0211236450
 C          6.1624344069        0.4763296118       -1.8458035002
 C          4.8238743671        0.6807263413       -2.1225788642
 C          4.1385739205        1.7487058255       -1.5435018059
 C          2.6725322693        1.8167507019       -1.6157445002
 C          1.9798603863        1.5745113996       -2.7992546733
 C          0.5997334727        1.5854180810       -2.8232511633
 C         -0.1233070530        1.8082987872       -1.6522364941
 N         -1.5212803497        1.7926824843       -1.6711708586
 C         -2.3128314982        0.8456309528       -2.2902766239
 C         -1.9512433723       -0.3135621663       -2.9615147856
 C         -2.9618113870       -1.1037036184       -3.4819921685
 C         -4.3035203195       -0.7670972722       -3.3248070300
 C         -4.6705291325        0.3782891803       -2.6469932418
 C         -3.6743352069        1.1945495428       -2.1306019756
 C         -3.6939916861        2.4360085567       -1.4109418178
 C         -4.7153491617        3.2982492435       -1.0361874548
 C         -4.3833068805        4.4752235847       -0.3985878047
 C         -3.0537748846        4.7935833622       -0.1335162737
 C         -2.0209340045        3.9522793698       -0.4986020577
 C         -2.3484891435        2.7652041698       -1.1362970662
 C          0.5622082212        2.0521351537       -0.4637353621
 C          1.9416865777        2.0657437759       -0.4540520009
 C          4.8601350716        2.6913004657       -0.8100360626
 C          6.2021808977        2.4966096627       -0.5472120109
 C          6.4771684519        0.8136415123        1.9544056145
 C          5.1847433572        0.5289452011        2.3439917753
 C          2.3744460267       -1.1463271682        0.7861841307
 C          1.0033176405       -1.0453332849        0.6983687652
 N         -1.6936339468        0.9451087565        1.9792591188
 C         -3.0050900550        0.8507551131        1.6367728206
 C         -4.0296507268        1.8067704986        1.8772565955
 C         -3.7611512410        3.0053404193        2.5449212687
 C         -4.7732342357        3.8938954037        2.8071373786
 C         -6.0708538432        3.5915551126        2.4010280621
 C         -6.3440013959        2.4196568504        1.7357768384
 C         -5.3359956072        1.4876669737        1.4463735373
 C         -5.5945000946        0.2291852346        0.7697129748
 C         -6.8678507312       -0.0863646525        0.2753978575
 C         -7.1422156535       -1.2949599515       -0.3190188515
 C         -6.1459421057       -2.2593762936       -0.4263476320
 C         -4.8800542213       -1.9822682582        0.0264927722
 C         -4.5690303768       -0.7410463070        0.5983595100
 C         -3.2622120469       -0.3811687693        1.0340325485
 C         -1.8366126075       -2.8283227826       -0.6264002698
 C         -1.4810655211       -4.1290588065       -0.9351171617
 H         -1.3451835252       -7.2185132504        1.6331587587
 H         -2.5309610822       -7.2375807067        0.3299260236
 H         -1.2198977914       -8.4199109832        0.3512369094
 H         -0.4841759501       -7.8342933533       -1.8969831199
 H         -1.8212752728       -6.7017192862       -2.0482491986
 H         -0.1606149829       -6.1728299551       -2.3759393819
 H          1.0408754573       -6.4551227555        1.1636692945
 H          1.4914215265       -5.9332611313       -0.4579556021
 H          1.1864135305       -7.6414686977       -0.1302638050
 H         -0.5456879420       -5.1627633472        2.1290613188
 H         -1.1731042724       -2.8737116831        2.6817890243
 H          0.3896304094        0.4491587236        3.6605623364
 H          2.8323395344        0.2140299263        3.8454902049
 H          4.8164323469       -2.4691982981        0.8275766351
 H          7.1150189308       -1.9179117397        0.0860523427
 H          6.6882536390       -0.3874724695       -2.2217977071
 H          4.2849063293       -0.0333983983       -2.7274536294
 H          2.5288537700        1.4074567080       -3.7144538085
 H          0.0733069685        1.4368843875       -3.7542878490
 H         -0.9153417642       -0.6012466175       -3.0687771084
 H         -2.7019770652       -2.0059604023       -4.0173779651
 H         -5.0624646549       -1.4139849439       -3.7379765190
 H         -5.7099578710        0.6358269365       -2.5157687797
 H         -5.7431633644        3.0532598571       -1.2556601397
 H         -5.1603903599        5.1640909591       -0.1045043021
 H         -2.8238377571        5.7254783563        0.3610099321
 H         -0.9935688973        4.2235387782       -0.3104346156
 H          0.0076005011        2.1963026231        0.4505879678
 H          2.4654847203        2.2278419056        0.4761200731
 H          4.3534029880        3.5596938177       -0.4165306850
 H          6.7621857642        3.1914364557        0.0589007823
 H          6.9656910360        1.7261222215        2.2579998740
 H          4.6470828220        1.2369969140        2.9557381461
 H          2.9282352566       -1.5470126102       -0.0492011964
 H          0.4998964449       -1.3822231841       -0.1948232057
 H         -2.7441444540        3.1979976656        2.8491836748
 H         -4.5716649389        4.8182488542        3.3278536925
 H         -6.8731562616        4.2835593994        2.6135554653
 H         -7.3654504690        2.2250522663        1.4492875126
 H         -7.6660659371        0.6342143781        0.3541426916
 H         -8.1348361828       -1.4997421936       -0.6927792095
 H         -6.3648345450       -3.2206598471       -0.8672503399
 H         -4.1145602306       -2.7363365974       -0.0532227214
 H         -2.1944766949       -2.1636640558       -1.3971457966
 H         -1.5774586953       -4.4465031281       -1.9600720739
  112
  -173.803893570000       0.232448877233267      !
 C         -0.2773773472       -7.0765304733        0.3072009038
 C         -0.9171276846       -6.1610749219       -0.7394584555
 C         -2.2093187964       -6.8265287472       -1.2333668649
 C          0.0670510887       -6.0051014738       -1.9074841549
 C         -1.2496863850       -4.7837178165       -0.1900477944
 C         -0.9903421815       -4.4071365201        1.1225097876
 C         -1.3047607146       -3.1412991900        1.5849131387
 C         -1.8923445000       -2.2155834585        0.7346097163
 N         -2.1627171414       -0.9133140682        1.1970321021
 C         -1.2065803783       -0.1023790976        1.7600637399
 C          0.2148685203       -0.3997026045        1.8301534201
 C          0.9231339892       -0.0018222429        2.9640292072
 C          2.2943813846       -0.1280155479        3.0169133190
 C          3.0059848874       -0.6321321805        1.9277093266
 C          4.4693059736       -0.5552452750        1.8517355183
 C          5.2102952683       -1.4558940685        1.0828432766
 C          6.5093181166       -1.1610210367        0.7171954915
 C          7.0934897365        0.0156040293        1.1526127980
 S          8.2964910080        0.8148654200        0.0736312149
 O          9.0157234017        1.8535967741        0.7633568278
 O          9.0547929013       -0.1509785993       -0.6778636462
 C          6.9406287297        1.4913857071       -0.9085297988
 C          6.3333829516        0.6523537075       -1.8253539752
 C          5.0092395128        0.8544500310       -2.1637581290
 C          4.2727636585        1.8730890931       -1.5578015175
 C          2.8101514862        1.8923515308       -1.6894094794
 C          2.1775565230        1.6508039182       -2.9067663401
 C          0.8035119963        1.5487208122       -2.9783637488
 C          0.0282773232        1.6553422868       -1.8243040472
 N         -1.3550934203        1.4650620502       -1.8888508595
 C         -1.9895919907        0.4375132691       -2.5595914092
 C         -1.4519646261       -0.6349287123       -3.2593961079
 C         -2.3275070259       -1.5357101512       -3.8380321225
 C         -3.7076685951       -1.3994981144       -3.7030167151
 C         -4.2491186876       -0.3516773935       -2.9835328483
 C         -3.3901589640        0.5795486423       -2.4151531905
 C         -3.6021902932        1.7754322897       -1.6498102918
 C         -4.7440100982        2.4686835458       -1.2723060658
 C         -4.5959611042        3.6629799850       -0.5978913506
 C         -3.3317004776        4.1597312011       -0.2921439024
 C         -2.1816478551        3.4860011339       -0.6553763822
 C         -2.3229874558        2.2868397178       -1.3373066948
 C          0.6497499256        1.9340779644       -0.6089042363
 C          2.0226969087        2.0585763728       -0.5501738341
 C          4.9360405295        2.7826195216       -0.7333382453
 C          6.2642247780        2.5899071294       -0.4067233053
 C          6.4335995034        0.8288985066        2.0580196170
 C          5.1313749503        0.5408898178        2.4111606192
 C          2.2862008098       -1.0691469065        0.8137789701
 C          0.9122597226       -0.9643481498        0.7639321898
 N         -1.7033062121        1.0348342851        2.1824989467
 C         -3.0303621917        0.9874666066        1.8965114186
 C         -4.0076263600        1.9795544772        2.1810254259
 C         -3.6627359833        3.1731772469        2.8224046452
 C         -4.6238905446        4.1112996185        3.1029881918
 C         -5.9474833146        3.8609938375        2.7474635699
 C         -6.2960602362        2.6918267091        2.1129730293
 C         -5.3407728314        1.7125560205        1.8011069983
 C         -5.6746538425        0.4634462700        1.1404741962
 C         -6.9820187944        0.1916803855        0.7129502179
 C         -7.3268811153       -1.0038178967        0.1290652529
 C         -6.3706075924       -2.0015155790       -0.0283677392
 C         -5.0748057694       -1.7690024706        0.3612072820
 C         -4.6911413876       -0.5386010109        0.9130774878
 C         -3.3520209420       -0.2230263754        1.2819188924
 C         -2.1579332928       -2.5731318035       -0.5809686812
 C         -1.8408831292       -3.8392707480       -1.0269938932
 H          0.6586785772       -6.6604320405        0.6720837281
 H         -0.9484368039       -7.2391846328        1.1471482982
 H         -0.0620750958       -8.0437501656       -0.1416495305
 H         -1.9947183610       -7.8223271991       -1.6148562301
 H         -2.9214720130       -6.9161006987       -0.4158481449
 H         -2.6733145434       -6.2499882591       -2.0284289034
 H          0.9771533752       -5.5140742303       -1.5690118790
 H         -0.3619696182       -5.4129098734       -2.7106361850
 H          0.3301262707       -6.9816661150       -2.3075913164
 H         -0.5382193173       -5.0986900435        1.8135864747
 H         -1.0943501174       -2.8697986924        2.6090792156
 H          0.3783633001        0.4259363065        3.7914556404
 H          2.8212689658        0.1725142171        3.9102775180
 H          4.7469585299       -2.3622462035        0.7233202152
 H          7.0634772429       -1.8032838719        0.0504968996
 H          6.8942792723       -0.1797329522       -2.2214316922
 H          4.5170306283        0.1691619104       -2.8376541175
 H          2.7675310664        1.5633315556       -3.8072468402
 H          0.3206365096        1.3917349392       -3.9312132883
 H         -0.3848104917       -0.7745736823       -3.3429330364
 H         -1.9299310038       -2.3671490875       -4.4016044243
 H         -4.3585515824       -2.1277514681       -4.1632452885
 H         -5.3168587679       -0.2540283484       -2.8603120414
 H         -5.7218383580        2.0829702138       -1.5175092511
 H         -5.4684306690        4.2251793583       -0.3025734459
 H         -3.2486406302        5.0985637198        0.2340513880
 H         -1.2079417921        3.8947230941       -0.4339445767
 H          0.0579242274        2.0140311889        0.2897566066
 H          2.4987599577        2.2314515701        0.4033064868
 H          4.3936657536        3.6183065127       -0.3173215571
 H          6.7766915334        3.2527754298        0.2727127002
 H          6.9298576937        1.7154106689        2.4202756058
 H          4.5944804279        1.2228559066        3.0524072231
 H          2.8167092551       -1.4412382762       -0.0496101221
 H          0.3856287332       -1.2714175634       -0.1270701539
 H         -2.6274098011        3.3240036904        3.0857346296
 H         -4.3634016246        5.0348414687        3.5986730561
 H         -6.7097395339        4.5926078858        2.9745053901
 H         -7.3342965496        2.5408057910        1.8633427191
 H         -7.7511837505        0.9367086842        0.8370836099
 H         -8.3434180983       -1.1732655393       -0.1947642342
 H         -6.6440602200       -2.9545734491       -0.4565096810
 H         -4.3436246848       -2.5523780472        0.2489010070
 H         -2.6119704651       -1.8577815864       -1.2456856955
 H         -2.0617016687       -4.0821623617       -2.0545655540
  112
  -173.803023270000       9.254762227446801E-002 !
 C         -1.7948151682       -7.8035849352       -0.7567239250
 C         -1.2122869359       -7.1475848096        0.4982095768
 C          0.3091423662       -7.3537659952        0.4842626995
 C         -1.8214567291       -7.8378852762        1.7267652625
 C         -1.5061395123       -5.6582356127        0.5708000913
 C         -1.0372178967       -4.9168078922        1.6534880946
 C         -1.2713284464       -3.5607498427        1.7591665874
 C         -1.9895314872       -2.8992326970        0.7694032720
 N         -2.1801930467       -1.5072799706        0.8691049150
 C         -1.1546912363       -0.6033820573        1.0329016868
 C          0.2667328560       -0.8822596877        0.9488717275
 C          1.1197643002       -0.0415520812        1.6668136681
 C          2.4840715168       -0.1858229215        1.5773587201
 C          3.0476394241       -1.1588981019        0.7501042858
 C          4.5066520915       -1.1413761821        0.5855339827
 C          5.0646520832       -1.1187172399       -0.6930214556
 C          6.3681206328       -0.6998278110       -0.8727388589
 C          7.1311855507       -0.3380164277        0.2254946161
 S          8.3284830164        0.9889363762       -0.0232703583
 O          9.0597709257        1.2485425829        1.1890155139
 O          9.0760098462        0.8304344572       -1.2430204942
 C          6.9643587968        2.1479818019       -0.2629296728
 C          6.4958619362        2.3653149725       -1.5455574129
 C          5.1680848931        2.6943842567       -1.7415146883
 C          4.2808712970        2.7579800699       -0.6630606293
 C          2.8288821834        2.7548527981       -0.8778972084
 C          2.3061695836        2.0926233943       -1.9901224713
 C          0.9466677347        1.9893335697       -2.1883795354
 C          0.0549930342        2.5182343394       -1.2570506471
 N         -1.3200919747        2.3836751571       -1.4509552908
 C         -1.9641755524        1.2256920937       -1.8379711089
 C         -1.4459865363       -0.0358138456       -2.0909036972
 C         -2.3238385492       -1.0278982027       -2.4834130364
 C         -3.6941486006       -0.7955930053       -2.5771447158
 C         -4.2204358175        0.4489933892       -2.2944498618
 C         -3.3527380848        1.4719960438       -1.9391741302
 C         -3.5442171553        2.8590500039       -1.6238677862
 C         -4.6593109773        3.6844859542       -1.6139299374
 C         -4.4882777146        5.0209074833       -1.3151772504
 C         -3.2235075724        5.5358809667       -1.0437853145
 C         -2.0989969345        4.7327497510       -1.0490523426
 C         -2.2663032692        3.3836070027       -1.3246239541
 C          0.5649917122        3.1806412454       -0.1427771166
 C          1.9281102758        3.3046116047        0.0346825639
 C          4.8107298995        2.6889761453        0.6280405434
 C          6.1410760505        2.3818010123        0.8264597840
 C          6.6478753429       -0.5325670861        1.5080238655
 C          5.3412556895       -0.9429071995        1.6870227827
 C          2.1976415262       -1.9943760672        0.0318584445
 C          0.8252059218       -1.8664262526        0.1338923881
 N         -1.5970165246        0.6165215532        1.2280630484
 C         -2.9488355579        0.5364906974        1.1700909430
 C         -3.8808430651        1.6013305426        1.3071362910
 C         -3.4600457479        2.8981891310        1.6170414825
 C         -4.3737601204        3.9134256854        1.7410737893
 C         -5.7255132804        3.6413941039        1.5429459252
 C         -6.1507413231        2.3690786380        1.2417635905
 C         -5.2478443606        1.3012447261        1.1250403658
 C         -5.6664440691       -0.0685425177        0.8857169288
 C         -7.0176592305       -0.3983293082        0.7087743675
 C         -7.4418342527       -1.6988719745        0.5752695834
 C         -6.5221651579       -2.7399162260        0.6449096714
 C         -5.1862656343       -2.4579998245        0.7899036495
 C         -4.7256448737       -1.1360321484        0.8688364912
 C         -3.3484678125       -0.7820091847        0.9498907946
 C         -2.4728201441       -3.6232985966       -0.3117976909
 C         -2.2321528741       -4.9825155310       -0.4033194134
 H         -2.8780231997       -7.7099326632       -0.7815089701
 H         -1.3765052674       -7.3646369814       -1.6596677575
 H         -1.5508764771       -8.8637625557       -0.7564213328
 H          0.5414508082       -8.4140469407        0.4148378432
 H          0.7501459912       -6.8473982215       -0.3720761913
 H          0.7720635617       -6.9628354246        1.3860581119
 H         -1.3917554199       -7.4589331886        2.6497430699
 H         -1.6395147604       -8.9092773225        1.6817440438
 H         -2.8962922492       -7.6717412625        1.7574381806
 H         -0.4767092899       -5.4000054253        2.4386997762
 H         -0.8955218070       -3.0058978025        2.6064428659
 H          0.6821672594        0.7309503674        2.2788516767
 H          3.1342614103        0.4822959912        2.1213939770
 H          4.4423745044       -1.3284312352       -1.5501027551
 H          6.7847134810       -0.5765893358       -1.8604346828
 H          7.1680982743        2.2235858456       -2.3777756714
 H          4.8059784479        2.8551255910       -2.7455500978
 H          2.9744962698        1.6366456596       -2.7046932523
 H          0.5677264134        1.5065711322       -3.0763922231
 H         -0.3934709593       -0.2458308677       -1.9780714896
 H         -1.9293597957       -2.0038538048       -2.7286993967
 H         -4.3519875736       -1.5998689031       -2.8740818838
 H         -5.2833908130        0.6276628498       -2.3519165009
 H         -5.6356230033        3.2853957574       -1.8428541455
 H         -5.3418387365        5.6817757790       -1.3020187157
 H         -3.1167748808        6.5896955549       -0.8323235164
 H         -1.1214851130        5.1517130725       -0.8639031401
 H         -0.1158696832        3.5767474263        0.5939415672
 H          2.2969862693        3.8442915593        0.8940257247
 H          4.1596993752        2.7962989026        1.4815647615
 H          6.5418562112        2.2566860307        1.8202540737
 H          7.2827866737       -0.2913218132        2.3465574560
 H          4.9412880069       -1.0496783486        2.6844785058
 H          2.6156193895       -2.7570881833       -0.6092262380
 H          0.1886060325       -2.5157189412       -0.4473983282
 H         -2.4039875563        3.0642145211        1.7620542701
 H         -4.0538654992        4.9146109392        1.9874787006
 H         -6.4494023959        4.4380614535        1.6335744099
 H         -7.2086938939        2.2059220057        1.1094839808
 H         -7.7595098183        0.3833820101        0.6791510695
 H         -8.4912323430       -1.9131646315        0.4365544157
 H         -6.8556127124       -3.7653188941        0.5842257649
 H         -4.4812569407       -3.2702208264        0.8605363840
 H         -3.0404253812       -3.1174074643       -1.0761503989
 H         -2.6238640608       -5.5065476620       -1.2593664957
  112
  -173.802417000000       4.872399215691713E-002 !
 C         -0.0658990826       -6.9554296841       -0.7239590595
 C         -1.5046638128       -6.6611001094       -0.2769019622
 C         -1.8538625145       -7.6164700674        0.8671832407
 C         -2.4762425580       -6.9248096621       -1.4360387022
 C         -1.6106298077       -5.1996268189        0.1266709729
 C         -1.9999408747       -4.7941618252        1.3979904220
 C         -2.1032525228       -3.4535650694        1.7254469696
 C         -1.8132090558       -2.4827848182        0.7775813309
 N         -1.9479409902       -1.1165220912        1.1125697291
 C         -0.9958624622       -0.2878458509        1.6626493603
 C          0.4147315506       -0.5584786560        1.8486525933
 C          1.1827224734        0.4794687493        2.3911365452
 C          2.5524159179        0.3933564516        2.4523325038
 C          3.2246641749       -0.7408497606        1.9871064764
 C          4.6755913380       -0.6806605367        1.7890446875
 C          5.2447305597       -1.3194632555        0.6829034111
 C          6.5036587125       -0.9709130506        0.2424768613
 C          7.2140296455        0.0162412926        0.9053560910
 S          8.3082834738        1.0257268122       -0.1080378383
 O          9.0346395568        1.9708506412        0.6993433315
 O          9.0500966516        0.2301257795       -1.0516996373
 C          6.8767856819        1.7883797865       -0.9003005445
 C          6.2954868669        1.1324981565       -1.9705941669
 C          4.9567270629        1.3296184258       -2.2483814842
 C          4.1801747560        2.1742968610       -1.4522156069
 C          2.7168020839        2.1724736052       -1.5754002732
 C          2.0748198145        1.9712165312       -2.7972538947
 C          0.7016310419        1.8487322915       -2.8643539743
 C         -0.0683387539        1.9209756433       -1.7050767700
 N         -1.4564597739        1.7541243479       -1.7639228874
 C         -2.1158048191        0.7092373349       -2.3769051816
 C         -1.5989426597       -0.4157809712       -3.0031588369
 C         -2.4936148843       -1.3388468654       -3.5141159109
 C         -3.8692485711       -1.1567872667       -3.4015712894
 C         -4.3892867025       -0.0412450101       -2.7756631695
 C         -3.5119127812        0.9005550434       -2.2573850967
 C         -3.6931508980        2.1443659205       -1.5638440543
 C         -4.8130214604        2.8915560261       -1.2255694740
 C         -4.6305462222        4.1055622521       -0.5959385343
 C         -3.3531426967        4.5714200963       -0.2954871950
 C         -2.2235253967        3.8473720367       -0.6240950784
 C         -2.4011802647        2.6289796600       -1.2612804032
 C          0.5576816651        2.1559059312       -0.4842657320
 C          1.9300952802        2.2782973478       -0.4270811510
 C          4.8189552405        2.9248349936       -0.4619831577
 C          6.1543976869        2.7195167812       -0.1754733684
 C          6.7376520984        0.5362885283        2.0954334867
 C          5.4862663675        0.1670363294        2.5499909343
 C          2.4500031758       -1.8199267350        1.5623136387
 C          1.0739038927       -1.7356902483        1.4913640717
 N         -1.5063862390        0.8845397417        1.9839650956
 C         -2.8187058815        0.8337346982        1.6613754184
 C         -3.8196480646        1.8146556352        1.9098093759
 C         -3.5166224898        3.0167166043        2.5550870336
 C         -4.5126850573        3.9101264696        2.8610405610
 C         -5.8298772378        3.6058552577        2.5272906458
 C         -6.1369808111        2.4329050314        1.8781182542
 C         -5.1449300323        1.5031567910        1.5343743966
 C         -5.4358821394        0.2631852527        0.8348746942
 C         -6.7142231124       -0.0082784283        0.3291452133
 C         -7.0040366377       -1.1790949682       -0.3311460110
 C         -6.0142505666       -2.1381892625       -0.5170902776
 C         -4.7447780567       -1.9056716519       -0.0484230430
 C         -4.4288068938       -0.7175538717        0.6243613546
 C         -3.1244248275       -0.4063130635        1.1004761099
 C         -1.4112461299       -2.8666027040       -0.4961699076
 C         -1.3167466183       -4.2076266325       -0.8081246144
 H          0.2186512795       -6.3476203072       -1.5783460301
 H          0.6299100770       -6.7511322901        0.0875118327
 H          0.0307790737       -8.0017779676       -1.0045921908
 H         -1.7615666500       -8.6435182249        0.5208821185
 H         -1.1772351387       -7.4849919000        1.7085430761
 H         -2.8771053876       -7.4681356664        1.2041761876
 H         -3.4949293190       -6.6921977881       -1.1328196092
 H         -2.4340433235       -7.9717018825       -1.7278408296
 H         -2.2325469126       -6.3195785736       -2.3046724330
 H         -2.2362992295       -5.5196934577        2.1579192282
 H         -2.4157385682       -3.1554127698        2.7154121674
 H          0.6706460037        1.3672669742        2.7256029742
 H          3.1181261597        1.2369155586        2.8180570076
 H          4.6604902300       -2.0213446831        0.1085524828
 H          6.9207754748       -1.3999026213       -0.6548644871
 H          6.8913763501        0.4383562550       -2.5423531129
 H          4.4924216311        0.7663841068       -3.0435334281
 H          2.6535736063        1.9306572923       -3.7080365118
 H          0.2144561734        1.7046437142       -3.8175971998
 H         -0.5317917559       -0.5663444578       -3.0891536494
 H         -2.1158992344       -2.2218234307       -4.0093827949
 H         -4.5350187063       -1.9016424449       -3.8107463588
 H         -5.4553903349        0.0973998948       -2.6831994211
 H         -5.8013390839        2.5301175736       -1.4655751571
 H         -5.4867796087        4.7069442617       -0.3311159707
 H         -3.2430589972        5.5258224080        0.1971479985
 H         -1.2365608749        4.2269711297       -0.4076296899
 H         -0.0365400643        2.1989507826        0.4153513368
 H          2.4053537331        2.4101090101        0.5316007016
 H          4.2553738376        3.6456080725        0.1105671950
 H          6.6415387162        3.2438242590        0.6318589764
 H          7.3326235451        1.2668801161        2.6212601893
 H          5.1118944565        0.5866488231        3.4713295943
 H          2.9293701542       -2.7434404595        1.2727014843
 H          0.5227910542       -2.5894733396        1.1344438332
 H         -2.4869314653        3.2071523651        2.8152159371
 H         -4.2833126833        4.8370667735        3.3654962048
 H         -6.6201356059        4.2970722864        2.7827869285
 H         -7.1720030939        2.2346330681        1.6483755711
 H         -7.5011712727        0.7199056197        0.4440274148
 H         -8.0008414637       -1.3517949571       -0.7100983501
 H         -6.2389326199       -3.0578641554       -1.0366798367
 H         -3.9774793329       -2.6435080442       -0.2142857617
 H         -1.1908997811       -2.1099799696       -1.2326589180
 H         -1.0109856994       -4.4780427276       -1.8069186617
