  112
       -173.80483019
 C         -1.4799694001       -7.3864251757        0.5685089952
 C         -0.6074416773       -6.4369197014       -0.2643312151
 C         -0.7826904522       -6.7998450529       -1.7414289829
 C          0.8706717323       -6.6275500507        0.1047209328
 C         -1.0096958752       -5.0028473786        0.0377474826
 C         -0.9069996070       -4.5206436247        1.3408760326
 C         -1.2608414219       -3.2262581645        1.6644179079
 C         -1.7349322435       -2.3693560582        0.6786681329
 N         -2.0512520829       -1.0376073604        1.0185424105
 C         -1.1457799201       -0.1852915884        1.6050128379
 C          0.2774669741       -0.4497256698        1.7279527843
 C          0.9560007600       -0.0057610337        2.8625436260
 C          2.3266835067       -0.1242541528        2.9531138625
 C          3.0645488052       -0.6712727529        1.9033532556
 C          4.5283870267       -0.5995282766        1.8460402271
 C          5.2731589786       -1.5379348385        1.1270255558
 C          6.5619951483       -1.2472930130        0.7252779287
 C          7.1316321450       -0.0360001878        1.0779168836
 S          8.2574380311        0.7364713497       -0.0980664874
 O          9.0012943529        1.8123227800        0.5028451886
 O          8.9832241973       -0.2489482266       -0.8562497123
 C          6.8344442970        1.3604635336       -1.0211236450
 C          6.1624344069        0.4763296118       -1.8458035002
 C          4.8238743671        0.6807263413       -2.1225788642
 C          4.1385739205        1.7487058255       -1.5435018059
 C          2.6725322693        1.8167507019       -1.6157445002
 C          1.9798603863        1.5745113996       -2.7992546733
 C          0.5997334727        1.5854180810       -2.8232511633
 C         -0.1233070530        1.8082987872       -1.6522364941
 N         -1.5212803497        1.7926824843       -1.6711708586
 C         -2.3128314982        0.8456309528       -2.2902766239
 C         -1.9512433723       -0.3135621663       -2.9615147856
 C         -2.9618113870       -1.1037036184       -3.4819921685
 C         -4.3035203195       -0.7670972722       -3.3248070300
 C         -4.6705291325        0.3782891803       -2.6469932418
 C         -3.6743352069        1.1945495428       -2.1306019756
 C         -3.6939916861        2.4360085567       -1.4109418178
 C         -4.7153491617        3.2982492435       -1.0361874548
 C         -4.3833068805        4.4752235847       -0.3985878047
 C         -3.0537748846        4.7935833622       -0.1335162737
 C         -2.0209340045        3.9522793698       -0.4986020577
 C         -2.3484891435        2.7652041698       -1.1362970662
 C          0.5622082212        2.0521351537       -0.4637353621
 C          1.9416865777        2.0657437759       -0.4540520009
 C          4.8601350716        2.6913004657       -0.8100360626
 C          6.2021808977        2.4966096627       -0.5472120109
 C          6.4771684519        0.8136415123        1.9544056145
 C          5.1847433572        0.5289452011        2.3439917753
 C          2.3744460267       -1.1463271682        0.7861841307
 C          1.0033176405       -1.0453332849        0.6983687652
 N         -1.6936339468        0.9451087565        1.9792591188
 C         -3.0050900550        0.8507551131        1.6367728206
 C         -4.0296507268        1.8067704986        1.8772565955
 C         -3.7611512410        3.0053404193        2.5449212687
 C         -4.7732342357        3.8938954037        2.8071373786
 C         -6.0708538432        3.5915551126        2.4010280621
 C         -6.3440013959        2.4196568504        1.7357768384
 C         -5.3359956072        1.4876669737        1.4463735373
 C         -5.5945000946        0.2291852346        0.7697129748
 C         -6.8678507312       -0.0863646525        0.2753978575
 C         -7.1422156535       -1.2949599515       -0.3190188515
 C         -6.1459421057       -2.2593762936       -0.4263476320
 C         -4.8800542213       -1.9822682582        0.0264927722
 C         -4.5690303768       -0.7410463070        0.5983595100
 C         -3.2622120469       -0.3811687693        1.0340325485
 C         -1.8366126075       -2.8283227826       -0.6264002698
 C         -1.4810655211       -4.1290588065       -0.9351171617
 H         -1.3451835252       -7.2185132504        1.6331587587
 H         -2.5309610822       -7.2375807067        0.3299260236
 H         -1.2198977914       -8.4199109832        0.3512369094
 H         -0.4841759501       -7.8342933533       -1.8969831199
 H         -1.8212752728       -6.7017192862       -2.0482491986
 H         -0.1606149829       -6.1728299551       -2.3759393819
 H          1.0408754573       -6.4551227555        1.1636692945
 H          1.4914215265       -5.9332611313       -0.4579556021
 H          1.1864135305       -7.6414686977       -0.1302638050
 H         -0.5456879420       -5.1627633472        2.1290613188
 H         -1.1731042724       -2.8737116831        2.6817890243
 H          0.3896304094        0.4491587236        3.6605623364
 H          2.8323395344        0.2140299263        3.8454902049
 H          4.8164323469       -2.4691982981        0.8275766351
 H          7.1150189308       -1.9179117397        0.0860523427
 H          6.6882536390       -0.3874724695       -2.2217977071
 H          4.2849063293       -0.0333983983       -2.7274536294
 H          2.5288537700        1.4074567080       -3.7144538085
 H          0.0733069685        1.4368843875       -3.7542878490
 H         -0.9153417642       -0.6012466175       -3.0687771084
 H         -2.7019770652       -2.0059604023       -4.0173779651
 H         -5.0624646549       -1.4139849439       -3.7379765190
 H         -5.7099578710        0.6358269365       -2.5157687797
 H         -5.7431633644        3.0532598571       -1.2556601397
 H         -5.1603903599        5.1640909591       -0.1045043021
 H         -2.8238377571        5.7254783563        0.3610099321
 H         -0.9935688973        4.2235387782       -0.3104346156
 H          0.0076005011        2.1963026231        0.4505879678
 H          2.4654847203        2.2278419056        0.4761200731
 H          4.3534029880        3.5596938177       -0.4165306850
 H          6.7621857642        3.1914364557        0.0589007823
 H          6.9656910360        1.7261222215        2.2579998740
 H          4.6470828220        1.2369969140        2.9557381461
 H          2.9282352566       -1.5470126102       -0.0492011964
 H          0.4998964449       -1.3822231841       -0.1948232057
 H         -2.7441444540        3.1979976656        2.8491836748
 H         -4.5716649389        4.8182488542        3.3278536925
 H         -6.8731562616        4.2835593994        2.6135554653
 H         -7.3654504690        2.2250522663        1.4492875126
 H         -7.6660659371        0.6342143781        0.3541426916
 H         -8.1348361828       -1.4997421936       -0.6927792095
 H         -6.3648345450       -3.2206598471       -0.8672503399
 H         -4.1145602306       -2.7363365974       -0.0532227214
 H         -2.1944766949       -2.1636640558       -1.3971457966
 H         -1.5774586953       -4.4465031281       -1.9600720739
