35
 energy: -65.959807450659 gnorm: 0.000015561213 xtb: 6.7.1 (edcfbbe)
O           -2.56118933986736       -2.72963232366285        0.00337243162687
C           -2.38992324622814       -1.53064277406910        0.00004445738460
C           -3.51680190726535       -0.56877417277283       -0.00372454586241
C           -4.81400587095228       -1.07735090444167       -0.00695051232782
C           -5.90610234606458       -0.22962495586976       -0.01125280463101
C           -5.71513954118055        1.14455775616250       -0.01228035287758
C           -4.43323619958855        1.66236383136207       -0.00865306081763
C           -3.32416492199275        0.81934711462436       -0.00435161943582
C           -1.97690735117746        1.43533901561158       -0.00010397220059
O           -1.81239332853867        2.63724379193253        0.00219340056501
C           -0.84177189426197        0.48030813775337        0.00080050507685
N            0.37384078105376        1.00184651256357        0.00290829060416
C            1.41584400179787        0.17737461428851        0.00165925971294
C            1.22773284602125       -1.23452673414268       -0.00325132647309
C            2.34643049989056       -2.09447519214082       -0.00788899308331
C            3.61694879330110       -1.59144091048522       -0.00696029279347
O            4.63745543978657       -2.47293053124749       -0.01233715118275
C            3.85300787331803       -0.16748413267911       -0.00012366308337
C            5.14187380956369        0.39148425973174        0.00253040999802
C            5.32285314356534        1.75424603539224        0.00948866622496
C            4.22505727600995        2.61460378077029        0.01392348897978
C            2.95243765807662        2.09877264712144        0.01128074706771
C            2.74727500880649        0.71337845527368        0.00433902290423
N           -0.00662352954703       -1.75104520291852       -0.00337308652285
C           -1.03094383639209       -0.92133345593701       -0.00088782734365
H           -4.93879664068154       -2.15016102056885       -0.00610804599003
H           -6.90565084358936       -0.63787691627680       -0.01389121014706
H           -6.56551789163757        1.80989216160795       -0.01584019504139
H           -4.26055363032557        2.72852892737691       -0.00908968060500
H            2.18453289973691       -3.15961046546418       -0.01233741924211
H            5.48995119785473       -2.02021584524908       -0.01180774271966
H            6.02121078361074       -0.24060232702078       -0.00065930361528
H            6.32328010320266        2.16076926445896        0.01148231021957
H            4.38164446250804        3.68237262483234        0.01941451614099
H            2.08140648890254        2.73483136318373        0.01447555934082
