35
 energy: -65.922414768368 gnorm: 0.000112788057 xtb: 6.7.1 (edcfbbe)
O           -2.56084133446495       -2.74781498852112       -0.00776817655782
C           -2.40766560163260       -1.52309440423644       -0.00201206501038
C           -3.50759932793540       -0.57069821123897        0.00284246319076
C           -4.81544722131505       -1.07421571853609        0.00160118677189
C           -5.90049111872718       -0.22948908467047        0.00610675011866
C           -5.70953326686423        1.15225378486246        0.01193198893776
C           -4.43502751070831        1.66825287638440        0.01319300737166
C           -3.31485692726973        0.82634923501648        0.00876379457074
C           -1.99525234272461        1.43675135900224        0.01056146664480
O           -1.79436216801532        2.65021472461320        0.01520532955775
C           -0.86602220313321        0.50052443460723        0.00668181102943
N            0.35750594864201        0.93569049145702        0.00875928340555
C            1.42308768792594        0.18037464987668        0.00583961386630
C            1.23015991745785       -1.26011456719062       -0.00019830294864
C            2.35947859967841       -2.10275774746444       -0.00308945635461
C            3.62602234984389       -1.59211126406424       -0.00054713490915
O            4.64845452292802       -2.46894877336658       -0.00327801861315
C            3.85919827486028       -0.16395262810209        0.00486073662553
C            5.14429855468337        0.39604345324348        0.00683261975598
C            5.32398605489381        1.76178340497614        0.01219062388921
C            4.22496995549042        2.61725033201534        0.01588086545842
C            2.95156229619204        2.09964477195705        0.01388387286492
C            2.74967338763501        0.71285526631139        0.00826674779679
N           -0.00008911722604       -1.70016628196303       -0.00239371148154
C           -1.06824473477488       -0.94734305649554        0.00053038034588
H           -4.94050001652650       -2.14667547820261       -0.00298856258452
H           -6.90151635296296       -0.63443184528994        0.00512456038670
H           -6.56268120717664        1.81405321496349        0.01544312649337
H           -4.26172390036462        2.73403707546161        0.01763672536169
H            2.21171365807419       -3.17017344017577       -0.00726374243324
H            5.50037364618941       -2.01501478973778       -0.00039077265792
H            6.02480335249362       -0.23381706461770        0.00406554982204
H            6.32345202001106        2.16945110371475        0.01359351330394
H            4.37602607528692        3.68562221706585        0.02017678565727
H            2.08388858623754        2.74077084972370        0.01645555990027
