  35
        -65.91770091
 O         -2.5593885857       -2.7480671012        0.0188139440
 C         -2.4094203321       -1.5257863626        0.0063446917
 C         -3.5086288524       -0.5724876918        0.0109571369
 C         -4.8163519838       -1.0754980892        0.0369455594
 C         -5.9015699524       -0.2308003439        0.0403611908
 C         -5.7098490806        1.1508857746        0.0155692342
 C         -4.4351426897        1.6662273670       -0.0097920127
 C         -3.3150708508        0.8246597374       -0.0111328603
 C         -1.9960330157        1.4366205010       -0.0319548639
 O         -1.7972395890        2.6509459897       -0.0541416466
 C         -0.8673413282        0.5034659659       -0.0208510066
 N          0.3589361292        0.9369438833       -0.0185498440
 C          1.4229066591        0.1839550726       -0.0123316267
 C          1.2300465240       -1.2585472410       -0.0147948548
 C          2.3580257537       -2.1009583556       -0.0187295706
 C          3.6254696812       -1.5915412506       -0.0124394539
 O          4.6474876408       -2.4699009561       -0.0199899376
 C          3.8595640385       -0.1636663487        0.0042227574
 C          5.1448448822        0.3951926749        0.0255238774
 C          5.3255576858        1.7611825634        0.0424461077
 C          4.2278044782        2.6173598807        0.0363307844
 C          2.9536493860        2.1004801786        0.0154699869
 C          2.7511748593        0.7143382169        0.0011906106
 N         -0.0023702691       -1.6958665225       -0.0124787568
 C         -1.0665230837       -0.9448280327       -0.0111421424
 H         -4.9413562492       -2.1479801637        0.0557597930
 H         -6.9023478876       -0.6353743078        0.0616349677
 H         -6.5623969280        1.8134945147        0.0153149198
 H         -4.2620766214        2.7319182184       -0.0311012875
 H          2.2093361529       -3.1683203664       -0.0265206989
 H          5.4994741978       -2.0165645475       -0.0181771071
 H          6.0247179534       -0.2354112665        0.0323032854
 H          6.3253302622        2.1675864063        0.0613037768
 H          4.3791689299        3.6854705424        0.0493761241
 H          2.0863830624        2.7419926643        0.0107787302
