  105
  -145.153421247700       0.895688370546052      !
 C         -8.8891769988       -0.9303366272       -2.9193523995
 C         -7.9122064223       -0.3480177177       -1.9059921071
 C         -7.5508557073        1.0993157144       -2.2304599870
 C         -6.5973990539        1.6920899420       -1.1969610038
 C         -6.2144172969        3.1313166439       -1.5335793318
 C         -5.3881193168        3.8014019960       -0.4358184765
 C         -4.0263271916        3.1432574795       -0.2453461196
 C         -3.2062497742        3.8327729499        0.8496293293
 N         -1.9992086627        3.1092185869        1.1243822427
 C         -1.9359061189        1.9693415316        1.9010535822
 C         -2.9457624870        1.3032761028        2.5699471280
 C         -2.5960910308        0.1624398660        3.2996118806
 C         -1.2839296372       -0.2773288878        3.3599441545
 C         -0.2642216627        0.3823033727        2.6852988045
 C         -0.5954095313        1.5137485071        1.9403777083
 C          0.1577856039        2.4006338110        1.1174917692
 C          1.4960374804        2.4432384452        0.7569986331
 C          1.9248689792        3.4396504551       -0.1204494461
 N          3.2393826072        3.5071086856       -0.5527846788
 C          4.1715022906        2.5174126111       -0.5445997782
 N          3.8168437877        1.2897691959       -0.1983837680
 C          4.7806368122        0.3808949235       -0.2080730402
 N          4.4909730741       -0.8935400608        0.1657766390
 C          3.2477802784       -1.4185626751        0.4785749278
 C          3.1963025026       -2.5515914895        1.3115712147
 C          1.9818809045       -3.1102744457        1.6950332285
 C          0.8111896964       -2.5388523151        1.2131695463
 C          0.8541344931       -1.4066755532        0.3477404575
 C          2.0736182716       -0.8569092280       -0.0294013688
 C         -0.4955311692       -1.0849464982        0.0283103297
 C         -1.0829350662       -0.1019942880       -0.7686017622
 C         -2.4655859166       -0.0838755256       -0.8738020630
 C         -3.2572328455       -0.9965618688       -0.1929039224
 C         -2.6881030119       -1.9849533364        0.6165462587
 C         -1.3106461356       -2.0249714909        0.7109529854
 N         -0.4961137521       -2.8847601700        1.4211325521
 C         -0.9282394667       -4.0562515620        2.1270722379
 C         -0.5807180133       -5.3315371634        1.3462470880
 C         -1.2553013318       -5.3661825890       -0.0237136641
 C         -0.6244924959       -6.3852988987       -0.9744720008
 C          0.8523000730       -6.1339760808       -1.2936776135
 C          1.1346314745       -4.7505202874       -1.8746417403
 C          2.6177646131       -4.5622002481       -2.1826910109
 C          2.8978563735       -3.1776277919       -2.7527837969
 N          6.0597613337        0.6265671504       -0.5290632987
 C          6.2998117052        1.8833428595       -0.8857026365
 O          7.5565510864        2.1377826099       -1.2252487440
 C          7.8483966179        3.4711410667       -1.6039691099
 N          5.4130540160        2.8691899481       -0.9240371100
 C          1.0216291762        4.4210535403       -0.5805395865
 C         -0.3182926789        4.3934150845       -0.2192451309
 C         -0.7563108797        3.3780522230        0.6208066110
 H         -8.4583804190       -0.9115987863       -3.9179750035
 H         -9.8112067965       -0.3534013026       -2.9340922795
 H         -9.1322720297       -1.9603029992       -2.6693497806
 H         -8.3551064731       -0.3927749075       -0.9084500475
 H         -7.0016607339       -0.9511141271       -1.8916487406
 H         -7.0853683052        1.1409780283       -3.2174866530
 H         -8.4636768029        1.6979163753       -2.2692942617
 H         -7.0734616715        1.6671346923       -0.2146995281
 H         -5.7021182852        1.0735576394       -1.1525788815
 H         -7.1268171422        3.7119438516       -1.6868701535
 H         -5.6527461802        3.1463793362       -2.4694411992
 H         -5.2465058360        4.8544602029       -0.6911396536
 H         -5.9432661426        3.7612875923        0.5039469146
 H         -4.1534486988        2.1009039165        0.0403207374
 H         -3.4662533099        3.1754520608       -1.1811266072
 H         -2.9494111919        4.8507767483        0.5492535908
 H         -3.7980339728        3.8843765784        1.7687910008
 H         -3.9719534799        1.6355344030        2.5404758899
 H         -3.3674930029       -0.3772020008        3.8287726547
 H         -1.0504773130       -1.1562737055        3.9448932640
 H          0.7555806737        0.0389749707        2.7403036474
 H          2.1855167172        1.7115684817        1.1322634550
 H          3.5522377896        4.3697850808       -0.9775515061
 H          5.3030117451       -1.4776940300        0.3067694461
 H          4.1185922279       -2.9745113675        1.6804747381
 H          1.9696348253       -3.9547494705        2.3669468578
 H          2.1127204108       -0.0109137533       -0.6889054607
 H         -0.4734953487        0.6181425879       -1.2903573491
 H         -2.9368662289        0.6540222246       -1.5067578450
 H         -4.3326084067       -0.9545238874       -0.2875138737
 H         -3.3234561841       -2.6853766498        1.1368923566
 H         -2.0055974190       -3.9879260923        2.2793573074
 H         -0.4388662360       -4.0861151370        3.1067072441
 H         -0.8740193223       -6.2025831696        1.9347327416
 H          0.4977213093       -5.3570543145        1.2130793351
 H         -1.1996525159       -4.3802510635       -0.4813594763
 H         -2.3136286402       -5.6092525993        0.0980805251
 H         -1.1906047329       -6.3724649487       -1.9083053802
 H         -0.7201167484       -7.3856141948       -0.5450457234
 H          1.4560430718       -6.2711216467       -0.3960436788
 H          1.1750867831       -6.8919639222       -2.0117634992
 H          0.8383593295       -3.9781343112       -1.1674968265
 H          0.5526546472       -4.6148391617       -2.7881985113
 H          3.1902716059       -4.6920275953       -1.2622316791
 H          2.9469465363       -5.3256594255       -2.8912914304
 H          2.3630719831       -3.0361457874       -3.6896052954
 H          2.5742691349       -2.4128541960       -2.0519960257
 H          3.9609824753       -3.0475298053       -2.9417861386
 H          8.9124622778        3.4876477007       -1.8286231782
 H          7.6176236137        4.1621177106       -0.7905567833
 H          7.2677073617        3.7580919805       -2.4831239573
 H          1.3781787530        5.1943206882       -1.2443131576
 H         -0.9925382922        5.1439322467       -0.6037404824
  105
  -145.151389287600       0.104311629453948      !
 C         -8.8136830759        2.1060302110       -5.8068195296
 C         -8.1323908825        1.7064249312       -4.5038979556
 C         -7.2965373744        2.8457215407       -3.9258306290
 C         -6.6167982544        2.4496130700       -2.6182350885
 C         -5.7858137173        3.5871935354       -2.0307694127
 C         -5.1228392088        3.1731347447       -0.7207453921
 C         -4.3047580443        4.3042669945       -0.1060697417
 C         -3.6122174035        3.8674103258        1.1922020687
 N         -2.5908464576        2.8910963695        0.9492184232
 C         -2.7414932019        1.5206798887        1.0225514089
 C         -3.8324826734        0.7720473316        1.4247098378
 C         -3.7082879280       -0.6232776993        1.4067196384
 C         -2.5350120091       -1.2333531229        1.0060443008
 C         -1.4224394195       -0.4869572016        0.6242166524
 C         -1.5320671791        0.9043851130        0.6152851324
 C         -0.6209748456        1.9522347146        0.2980325347
 C          0.7036200071        1.9706473464       -0.1239575210
 C          1.3137933247        3.2036043160       -0.3356287707
 N          2.6213514226        3.3237696965       -0.7556767532
 C          3.6276662875        2.4196307256       -0.8860105376
 N          3.5177542210        1.1756255512       -0.4308292667
 C          4.5874718325        0.4142002982       -0.6306070200
 N          4.6353592041       -0.8812496014       -0.2261597034
 C          3.7713810762       -1.6484616129        0.5277893691
 C          4.0501780108       -3.0333563604        0.5970991120
 C          3.2292524892       -3.8979576799        1.3046746351
 C          2.1226736695       -3.3683686538        1.9510470776
 C          1.8626190505       -1.9618055037        1.9320409657
 C          2.6890011194       -1.1045543640        1.2133159366
 C          0.6839681734       -1.7588598389        2.7044390858
 C         -0.0653141611       -0.6253774463        3.0266168341
 C         -1.2021975544       -0.7905970770        3.8149934434
 C         -1.6081029195       -2.0405221743        4.2418209327
 C         -0.8827760336       -3.1924632014        3.9107419279
 C          0.2567185964       -3.0382177202        3.1417476348
 N          1.1466362966       -3.9895236206        2.6819725672
 C          0.9700285296       -5.4110298026        2.7670197639
 C          0.5348891442       -6.0039712275        1.4175905102
 C         -0.7697923056       -5.3888274738        0.8945100891
 C         -0.7251373076       -5.1010281732       -0.6081032839
 C          0.2260031041       -3.9557177302       -0.9530535537
 C          0.1821324086       -3.6030488469       -2.4379222814
 C          1.3124531906       -2.6630368845       -2.8599027511
 C          1.2550547541       -1.3079933241       -2.1653802610
 N          5.7107452756        0.8112503971       -1.2607229219
 C          5.7149952828        2.0774986947       -1.6467678756
 O          6.7898228596        2.5662097359       -2.2536385505
 C          7.8674116381        1.6667842395       -2.4417516532
 N          4.7181463184        2.9334200376       -1.4824180485
 C          0.5955302508        4.4094709676       -0.1518693711
 C         -0.7226759534        4.4036578652        0.2734832208
 C         -1.3285680658        3.1784199379        0.5083040822
 H         -9.4736473303        2.9558674415       -5.6463887143
 H         -9.4042990891        1.2814902011       -6.1985446538
 H         -8.0736003945        2.3843132061       -6.5540865944
 H         -8.8893629992        1.4102850006       -3.7740699615
 H         -7.4881552338        0.8419888941       -4.6800038916
 H         -6.5367572884        3.1403403740       -4.6529088601
 H         -7.9398071489        3.7108947917       -3.7506330120
 H         -7.3777652179        2.1499076181       -1.8944208660
 H         -5.9707758287        1.5867516599       -2.7927850862
 H         -6.4289282308        4.4529268067       -1.8574002568
 H         -5.0181199041        3.8831156876       -2.7485649947
 H         -5.8957443406        2.8629546401       -0.0147196404
 H         -4.4746288026        2.3164387828       -0.9040592095
 H         -3.5440495152        4.6308115105       -0.8167943793
 H         -4.9544452573        5.1540798272        0.1117313226
 H         -3.1553359390        4.7368953221        1.6742396128
 H         -4.3479437527        3.4394107580        1.8755916690
 H         -4.7561912500        1.2281886149        1.7453627528
 H         -4.5505127791       -1.2257573205        1.7123661494
 H         -2.4754340371       -2.3117271343        1.0040171622
 H         -0.5172238593       -0.9616625888        0.2903952563
 H          1.2511916066        1.0627007106       -0.2956999138
 H          2.9156382426        4.2466678444       -1.0496160216
 H          5.4754835530       -1.3447839312       -0.5477880621
 H          4.9151164468       -3.4199691947        0.0794394910
 H          3.4611860784       -4.9514488589        1.3431185381
 H          2.5056695833       -0.0461750691        1.1796914950
 H          0.2593769508        0.3531842065        2.7162318962
 H         -1.7875595816        0.0763732851        4.0839506668
 H         -2.4997488866       -2.1403958960        4.8420744916
 H         -1.2220360308       -4.1588993450        4.2520505328
 H          0.2165543211       -5.6193670024        3.5272469347
 H          1.9130137288       -5.8733427780        3.0786563143
 H          0.4308617013       -7.0839301021        1.5325534543
 H          1.3296914097       -5.8226369908        0.6976960712
 H         -0.9653110428       -4.4492452377        1.4102594635
 H         -1.6045072143       -6.0597027191        1.1080463835
 H         -1.7302598451       -4.8337390164       -0.9421672585
 H         -0.4293046418       -6.0044928507       -1.1463896320
 H         -0.0513667298       -3.0838509445       -0.3629759750
 H          1.2493404568       -4.2237882629       -0.6909271518
 H         -0.7784255854       -3.1409533173       -2.6742698774
 H          0.2595896759       -4.5223509422       -3.0244789583
 H          2.2719485440       -3.1364127980       -2.6404719914
 H          1.2554646472       -2.5158203141       -3.9413119299
 H          2.0070988327       -0.6390573198       -2.5783465970
 H          0.2779094691       -0.8498427432       -2.3013343733
 H          1.4508784295       -1.4161257585       -1.1037418951
 H          7.5585596503        0.8177805389       -3.0553095060
 H          8.2294869674        1.2925224224       -1.4817981724
 H          8.6439156258        2.2378017248       -2.9455025705
 H          1.0939988708        5.3480972484       -0.3400084505
 H         -1.2483588599        5.3352331953        0.4175480017
