  105
       -145.89536807
 C         -7.2426373597        0.3633148594       -0.5640525424
 C         -6.0181808857        0.4970983893        0.3323118388
 C         -5.9594207719        1.8664617033        1.0015296877
 C         -4.7543870951        2.0165612515        1.9296988627
 C         -3.4083790840        2.1073092424        1.2113321229
 C         -3.2678905091        3.3823271305        0.3824963306
 C         -1.8477143504        3.5847934514       -0.1391123355
 C         -0.8889162264        4.0388251420        0.9665320012
 N          0.4657162056        4.1017074435        0.5031833010
 C          1.1377213448        5.2275854651        0.0854393139
 C          0.6990364227        6.5358801098       -0.0013894454
 C          1.6005634750        7.4962811923       -0.4549640443
 C          2.8994727045        7.1510726713       -0.8089799223
 C          3.3459652376        5.8424895136       -0.7280636507
 C          2.4623735814        4.8634593810       -0.2791247000
 C          2.5651977258        3.4510279415       -0.0790484744
 C          3.5881491394        2.5259110733       -0.2433548251
 C          3.3264414111        1.1767594917        0.0420731762
 N          4.3665624765        0.2800957016       -0.1106439326
 C          4.3732685757       -1.0788959512       -0.1054357087
 N          3.2399657620       -1.7693484492       -0.1385937920
 C          3.3831105881       -3.0881578510       -0.1312097628
 N          2.2998485086       -3.9118523824       -0.1729906546
 C          0.9760374811       -3.6534529256       -0.4499017601
 C          0.0743013953       -4.7292346384       -0.2972870675
 C         -1.2794277711       -4.5777646555       -0.5721030197
 C         -1.7274311175       -3.3395908280       -1.0126214561
 C         -0.8183670643       -2.2470804960       -1.1858931411
 C          0.5338084806       -2.4053751612       -0.8949856494
 C         -1.5854211048       -1.1551997844       -1.6809401673
 C         -1.2789270580        0.1588165302       -2.0501251718
 C         -2.3003022277        0.9601612669       -2.5408590689
 C         -3.6022107026        0.4949606432       -2.6552951499
 C         -3.9355738922       -0.8144949212       -2.2785051339
 C         -2.9244991368       -1.6181184645       -1.7957248180
 N         -2.9783598863       -2.9337226821       -1.3763328390
 C         -4.1894524004       -3.6798316570       -1.2131586984
 C         -4.9756684678       -3.2563418584        0.0399324992
 C         -4.1348099728       -3.3677498332        1.3168435708
 C         -3.3862905433       -2.0716730428        1.6438297708
 C         -2.1211498913       -2.3191817879        2.4616031880
 C         -1.2554608957       -1.0631497334        2.5208669960
 C         -0.0103004547       -1.2250599232        3.3916668245
 C          0.9412432096       -2.2940914948        2.8663308247
 N          4.5565685917       -3.7387152159       -0.0547258801
 C          5.6240276729       -2.9501436317       -0.0548185302
 O          6.7894103250       -3.5795268526       -0.0109457729
 C          7.9490638078       -2.7648498617       -0.0174956520
 N          5.6045742821       -1.6261703134       -0.0956315090
 C          2.0639849961        0.7710108729        0.4998471674
 C          1.0414076143        1.6851663298        0.6819032370
 C          1.2928544548        3.0215567917        0.3938538260
 H         -7.2870924872       -0.6263493345       -1.0145991758
 H         -7.2120981789        1.1007823514       -1.3632110662
 H         -8.1572700821        0.5174721360        0.0048548505
 H         -6.0514229307       -0.2718283845        1.1047931742
 H         -5.1227609802        0.3499215805       -0.2665142264
 H         -5.9313286238        2.6408561242        0.2378669677
 H         -6.8702221759        2.0129384391        1.5869555451
 H         -4.8875114156        2.9165382717        2.5346905961
 H         -4.7323344957        1.1635398502        2.6103700941
 H         -3.2729815184        1.2457202563        0.5619242897
 H         -2.6284300187        2.0813364379        1.9709316611
 H         -3.9400768182        3.3212620251       -0.4709141604
 H         -3.5621256723        4.2449246285        0.9833381967
 H         -1.4850939143        2.6497625286       -0.5607617980
 H         -1.8485745670        4.3394835036       -0.9275547829
 H         -1.1807953380        5.0252273394        1.3294840871
 H         -0.9310717306        3.3328494842        1.7969512043
 H         -0.3084256020        6.8175697255        0.2661470561
 H          1.2812927249        8.5242049505       -0.5325617047
 H          3.5716809163        7.9216442534       -1.1562235179
 H          4.3553277175        5.5832320352       -1.0076804089
 H          4.5632873680        2.8325821891       -0.5890034535
 H          5.2894344064        0.6762614671       -0.2308653569
 H          2.5535325221       -4.8806935117       -0.0351566423
 H          0.4493428577       -5.6839256454        0.0381903115
 H         -1.9449841615       -5.4189757216       -0.4499387770
 H          1.2323248458       -1.6007099850       -1.0252014182
 H         -0.2709878229        0.5320723342       -1.9610475454
 H         -2.0786664119        1.9712259353       -2.8515234398
 H         -4.3726669446        1.1432176591       -3.0443815886
 H         -4.9486962832       -1.1681402409       -2.3839997368
 H         -3.9334820379       -4.7370836075       -1.1393099298
 H         -4.8179487112       -3.5357795007       -2.0976184065
 H         -5.8540309320       -3.9008104947        0.1067431958
 H         -5.3121951833       -2.2297944019       -0.0807127361
 H         -3.4109329237       -4.1706966682        1.1919441380
 H         -4.7791351681       -3.6372035654        2.1560744530
 H         -4.0473365584       -1.3917792363        2.1825541433
 H         -3.0956775257       -1.5760363264        0.7218863986
 H         -2.3822984447       -2.6409788747        3.4721677401
 H         -1.5497221076       -3.1132223100        1.9863030451
 H         -1.8535051917       -0.2371097860        2.9113979590
 H         -0.9451157156       -0.8132595032        1.5069535981
 H          0.5182436534       -0.2696802266        3.4229271953
 H         -0.3082307763       -1.4719688148        4.4133502864
 H          0.5053911481       -3.2840374340        2.9657828967
 H          1.1590054286       -2.1176439916        1.8190346156
 H          1.8745842394       -2.2778112186        3.4253018571
 H          8.7911401620       -3.4518509833        0.0251381789
 H          7.9556711082       -2.0965726068        0.8463427519
 H          7.9921501537       -2.1629679036       -0.9277227090
 H          1.9078001547       -0.2674561036        0.7189166105
 H          0.0806320495        1.3553297533        1.0385662340
