  34
  -52.3380494300000        1.00000000000000      !
 C         -5.1599858870       -1.5297082502       -0.0040624434
 C         -5.5751023697       -0.2028252949       -0.0085768049
 C         -4.6356964537        0.8180844523       -0.0065578535
 C         -3.2815295356        0.5181907487       -0.0005937133
 N         -2.3395758865        1.5148809079        0.0020640954
 C         -0.9807596700        1.2885391192        0.0033502158
 C         -0.0984242358        2.3734517797        0.0026517976
 C          1.2745270207        2.1822255513        0.0021457628
 C          1.7621195516        0.8816963162        0.0023702801
 C          3.1180335666        0.3662095022       -0.0000931069
 C          4.3464780228        0.9848370733       -0.0043822837
 C          5.4965149738        0.1939162903       -0.0068347327
 C          5.4118292081       -1.1919080890       -0.0051678410
 C          4.1832405207       -1.8327786672       -0.0010053997
 C          3.0229225174       -1.0599574788        0.0014691859
 C          1.6559971948       -1.4189792356        0.0043716283
 C          0.8839453882       -0.2339732901        0.0045988858
 C         -0.5212509596       -0.0488453487        0.0051993384
 C         -1.4595947076       -1.0987279320        0.0064246675
 C         -2.8371535591       -0.8337915816        0.0029480579
 C         -3.8191176026       -1.8440025398        0.0017415037
 H         -5.8969296290       -2.3192731243       -0.0053164860
 H         -6.6271386826        0.0376193611       -0.0135435613
 H         -4.9521567733        1.8520360380       -0.0097261935
 H         -2.6618672818        2.4725337590       -0.0004109195
 H         -0.5055739239        3.3753776913        0.0021411478
 H          1.9441786549        3.0280068316        0.0013186770
 H          4.4288593633        2.0622382813       -0.0049206759
 H          6.4672378443        0.6678129607       -0.0099458944
 H          6.3196753260       -1.7777563295       -0.0075050637
 H          4.1236860152       -2.9116205606       -0.0000825793
 H          1.2778154438       -2.4243534991        0.0057089471
 H         -1.1188748114       -2.1207525086        0.0089090502
 H         -3.4974561837       -2.8746606906        0.0047241722
