72
 energy: -113.866378302603 gnorm: 0.000094284545 xtb: 6.7.1 (edcfbbe)
C           -7.73722932553895        2.77681584752240       -1.00755539906650
C           -8.19829068150278        1.88747127141668        0.14580197768864
N           -7.54638939733998        0.59529044956178        0.09271933016489
C           -8.29216557662060       -0.57324231480575        0.24272608247933
C           -9.46648568414368       -0.60004700169325        0.99477649708194
C          -10.21373769894025       -1.75903352834439        1.11022302384924
C           -9.79284633412070       -2.92920794473696        0.50507123634345
C           -8.60882242466274       -2.93345300704538       -0.21124231508036
C           -7.87294971665796       -1.76951679655831       -0.34634370007096
S           -6.39666308236607       -1.81000168644083       -1.32541704934421
C           -5.48325591051287       -0.55168795114848       -0.47076482861724
C           -4.10692332361112       -0.64030932500152       -0.45100190109630
C           -3.33316274339751        0.36021258255191        0.13844575355570
C           -1.87551187906562        0.27280978835646        0.13533213020624
C           -1.20917940670668       -0.93482967910034        0.18530457999266
C            0.18622086445624       -1.03791045249940        0.17414410516046
C            1.02164084404795        0.05817897401913        0.09910231496164
C            2.47637100195219       -0.06928084413928        0.08239538445661
C            3.11215721293669       -1.08973383870118        0.79305159389056
C            4.48281587801712       -1.22194219775899        0.77724321592357
C            5.27177712676715       -0.34145311624483        0.03426570560991
N            6.66023443870145       -0.47787347487683        0.01008816267286
C            7.24184534012061       -1.75087238205208        0.04687248579201
C            8.41810933222491       -1.96969465212564        0.76356976809239
C            8.99166326467574       -3.22586240563498        0.79282692963870
C            8.40213945326590       -4.28282164061257        0.11876163766236
C            7.23197952444844       -4.07154438665222       -0.59197803941605
C            6.65521386866285       -2.81723648703197       -0.63432613687168
C            7.47765220337642        0.65766151711876       -0.05037224066502
C            8.64982092139811        0.64400902646074       -0.80578304084211
C            9.45711634952053        1.76363935255908       -0.85750866500729
C            9.10811834810124        2.91317673924075       -0.16781966879038
C            7.94261868059855        2.93301983575871        0.58075329254380
C            7.13298124099068        1.81590603851476        0.64585930202946
C            4.64148875142720        0.68018406550945       -0.67872493119264
C            3.27149929093288        0.81627029437643       -0.64699392115643
C            0.38073154036404        1.32066814577861        0.03985432420040
N            0.96556905697818        2.51688186985097       -0.02538092085384
S           -0.16892087469604        3.65431438176561       -0.05598658511889
N           -1.45975675596466        2.69877787957808        0.01762824885443
C           -1.05784132054106        1.42864669142462        0.07416369231301
C           -3.99873247853000        1.43399597628925        0.72670978134740
C           -5.37637186615108        1.50591636086190        0.72829785430225
C           -6.15683289269556        0.52311614449455        0.11722221925724
H           -7.92909054503799        2.28019418122232       -1.95582529848987
H           -8.28599371516560        3.71484175672722       -0.98727556231612
H           -6.67433004622810        2.99230460001189       -0.94331755433243
H           -9.27053246901957        1.71813458417440        0.03676421695123
H           -8.02976014247522        2.38986027907224        1.10737806550053
H           -9.79976624835607        0.29168818299715        1.50274326049862
H          -11.12653768813861       -1.74341610507655        1.68663461770147
H          -10.37466615387205       -3.83336929203083        0.59269521077666
H           -8.25354961180174       -3.83284634268861       -0.69039827374636
H           -3.63919319210877       -1.47502455795857       -0.95009605921944
H           -1.78414569067102       -1.84620648416533        0.25358280136729
H            0.62184848550197       -2.02564158225037        0.20377974252968
H            2.52632053570741       -1.76666050562363        1.39721159921803
H            4.95734706944879       -2.00486739982572        1.35080298449970
H            8.87456481189904       -1.14922145719343        1.29777998002478
H            9.90159926720035       -3.38209916570060        1.35345944640927
H            8.85154361527366       -5.26383090642705        0.14677236393556
H            6.76858263470979       -4.88827208894070       -1.12581233098978
H            5.74887590532788       -2.65239581875325       -1.19845030327553
H            8.91923060483364       -0.24807749677924       -1.35222196485800
H           10.36136895125377        1.74045154276505       -1.44787018470857
H            9.73990045813518        3.78721372865634       -0.21342606961949
H            7.66499297441968        3.82316055850985        1.12587802064443
H            6.22976618133792        1.83084552003646        1.23796701683666
H            5.23814373975183        1.36351394623886       -1.26499803501942
H            2.80201366073348        1.60860105662621       -1.20739941923144
H           -3.42752167524371        2.21752193734720        1.19721141775606
H           -5.85179096341473        2.34037029042770        1.21843525604617
