72
 energy: -113.814361231315 gnorm: 0.000088525418 xtb: 6.7.1 (edcfbbe)
C           -8.38175116244190       -2.37280311599141        1.49962809959046
C           -8.16340305855252       -1.87586981659043        0.06844442194496
N           -7.53491517681668       -0.57003124833560       -0.01609586159648
C           -8.34873120984738        0.55772825221410       -0.01883451184238
C           -9.68759048444524        0.48516306536575        0.38761558236337
C          -10.51715280075896        1.58960554442762        0.37049103966931
C          -10.04301600929188        2.82223759625336       -0.04376681190081
C           -8.72536037633944        2.92515677328700       -0.44241404921083
C           -7.89164337462019        1.81623564570724       -0.43734613855893
S           -6.26213556849065        2.07340457524939       -1.05006624394577
C           -5.43809718004239        0.64773416299876       -0.40812864009285
C           -4.06543167628085        0.70805376138242       -0.38556412940985
C           -3.27547127976527       -0.38941916690470        0.00461451621722
C           -1.84813646444098       -0.32996336107082        0.03958719926567
C           -1.15116427465621        0.91319289149773       -0.00216370006993
C            0.20582472965110        1.01108662867384       -0.00181385435095
C            1.07469023420487       -0.11710387727761        0.04120506103725
C            2.50018082340171        0.03295131141892        0.01778366576044
C            3.11347849365985        1.22340967933785       -0.42790494074946
C            4.47656202595893        1.37147953522413       -0.43975408918873
C            5.31426091945728        0.33678109778948       -0.00495197782444
N            6.69745946135825        0.49260965655055       -0.00976599588340
C            7.52769490779130       -0.59640719757276       -0.29740494182979
C            7.15434594264973       -1.53362549942024       -1.26124723692980
C            7.97830003208279       -2.60563470503048       -1.54207065325295
C            9.18385646158886       -2.75812152190628       -0.87609775306241
C            9.55974854177751       -1.82872329738560        0.08040482220304
C            8.74048083501125       -0.75632838527793        0.37361771577417
C            7.26244797246937        1.74077757102975        0.27278930418127
C            6.69489860565130        2.56928559351098        1.24166927590526
C            7.25377951711532        3.80206887935032        1.51500226106003
C            8.38506321463876        4.22610848057790        0.83637428462463
C            8.95454654343809        3.40542868056588       -0.12396126300282
C            8.40019183125684        2.17323322608517       -0.40947511906626
C            4.72327100491240       -0.85676495623243        0.42971084620042
C            3.36037901459951       -1.00254149815519        0.43908188680312
C            0.42321991287339       -1.37628677623681        0.12458659960691
N            1.01495194369417       -2.56432288635665        0.16886472916332
S           -0.12734801915587       -3.73645370363949        0.22106810283009
N           -1.43107818494788       -2.74413064097376        0.17630567340871
C           -1.02039683801714       -1.48267021569958        0.12670798967305
C           -3.98700518683581       -1.55579330569203        0.35650662771406
C           -5.35707595251829       -1.60404486450526        0.34946053223723
C           -6.14959168859423       -0.50393690086454       -0.02234569653391
H           -9.02053156685636       -1.69617850033477        2.06075872712771
H           -8.85155898101355       -3.35290708173695        1.47334220789533
H           -7.43973820272436       -2.45355652502384        2.03469923624967
H           -9.11958524528768       -1.82348176036520       -0.45857044372288
H           -7.53779845778224       -2.58548373513645       -0.47845503923489
H          -10.10508035138316       -0.44485396849217        0.73172514429269
H          -11.54256205788048        1.48048308522832        0.68956330028079
H          -10.68621079927546        3.68750455711875       -0.05714310080185
H           -8.32050925320224        3.86739572829165       -0.77884009437139
H           -3.60828778745300        1.62180294291084       -0.73047523620882
H           -1.72773470343036        1.82474443708772        0.00547721422778
H            0.64482844406928        1.99659757573196        0.00837112915239
H            2.50975075304279        2.02903992319745       -0.81520116390635
H            4.91728918356375        2.28625254125510       -0.81015503142114
H            6.22052948813364       -1.40921322895241       -1.78912812294795
H            7.68016573538000       -3.32277622588609       -2.29226111057714
H            9.82617089425368       -3.59590936748033       -1.10064958609412
H           10.49470910283643       -1.94380400847312        0.60860277876700
H            9.02914827324879       -0.03919374499071        1.12813222498261
H            5.82090403008103        2.23362887607694        1.78012063664250
H            6.80757663212026        4.43276292615119        2.26960473780862
H            8.82018536797472        5.18938759783719        1.05467907656307
H            9.83303876767652        3.73080576147587       -0.66130265993292
H            8.83821946007382        1.53974761422143       -1.16683642921932
H            5.35449310299947       -1.66030905859824        0.78079483143519
H            2.92224776143069       -1.92261015089952        0.78910634770817
H           -3.42639051945447       -2.42861646050801        0.64786005599698
H           -5.81734917143677       -2.52728173051168        0.65611137933109
