137
 energy: -184.249080293439 gnorm: 0.000062365336 xtb: 6.7.1 (edcfbbe)
C           11.69940750647110       -5.38201065305996        1.86464759622792
C           12.14313267682730       -4.65579217309953        0.58562493265878
C           13.63668976059684       -4.34015111974622        0.71408870349227
C           11.95430484504200       -5.57790477959178       -0.62808294476964
C           11.29390417053761       -3.40476707077489        0.40432712133887
C            9.90405631238472       -3.54142885496659        0.28169865305084
C            9.05330386146304       -2.46478664380992        0.13360451066471
C            9.60630587385095       -1.19305427655274        0.11779222187446
C           11.00506897420695       -1.02969683613580        0.20531766903609
C           11.83795909910511       -2.13202458984566        0.35152260006923
C           11.25712202369254        0.38172090446716        0.10860658564927
C           12.42051936842354        1.14014257677602        0.14645276276976
C           12.34705568441607        2.52027471840036        0.05388565899794
C           13.58011250803627        3.41365720222650        0.08127736342991
C           14.88309563529515        2.61579690131295        0.19393577161081
C           13.49330143244538        4.35638601224393        1.29101834646504
C           13.63731478700330        4.23570389156041       -1.21511382643830
C           11.08215272625824        3.11457898574343       -0.05620439450386
C            9.91054403357957        2.38631429498025       -0.09704989819528
C            9.99871319790834        1.00380265168783       -0.03376928655829
N            9.00518562875776        0.04273611862717       -0.02948502480344
C            7.62936365200002        0.28496124466566       -0.12940395581283
C            6.74315686328327       -0.30570563821050        0.76826529895311
C            5.38851073414305       -0.06157292063446        0.66896906682895
C            4.88360141228590        0.79601263882269       -0.30708731312421
C            3.44311721994128        1.07891396441311       -0.37958448439360
C            2.99240469934357        2.38696028985058       -0.55835391015314
C            1.64179335408608        2.68336795707794       -0.59437880080162
C            0.72753021176627        1.65004970509214       -0.46280065442740
C            1.17006285210949        0.32764264432572       -0.30350911348838
C            2.51477314656573        0.04189104247058       -0.25383717938162
C           -0.00384916324488       -0.62210583573035       -0.20410071689058
C           -0.00499294534829       -1.36924806589899        1.13375036733982
C           -0.00632452979337       -1.61628621317734       -1.37091380124228
C           -1.17328512779300        0.33366975652953       -0.29935760956206
C           -2.51895342275688        0.05328798950415       -0.25045611340093
C           -3.44544401797996        1.09610702680275       -0.34778397487499
C           -4.88656488724790        0.81875977583239       -0.28036811896982
C           -5.38791243964166       -0.14792468979226        0.59124803461999
C           -6.74243457601016       -0.39947738167599        0.67260179421319
C           -7.63543775255878        0.30980134265162       -0.12607221892185
N           -9.01281674167951        0.06450636460537       -0.03830973674251
C           -9.62540044663182       -1.17027208009580       -0.11887856343015
C           -9.08530748009886       -2.42178000997143       -0.37279008830599
C           -9.94548045798734       -3.49942538058420       -0.43012104084157
C          -11.33075966021250       -3.38012396667326       -0.24906063007936
C          -12.19299092090720       -4.63348906728829       -0.32426178527864
C          -12.05008148361222       -5.26147013183938       -1.71881430536079
C          -11.72708195166068       -5.63282348490343        0.74534934684408
C          -13.67790285804031       -4.34242909639957       -0.08466914227800
C          -11.86060901707678       -2.12091892432228       -0.01942981091241
C          -11.01895956028749       -1.01714642850711        0.04132425986519
C          -11.25344862618229        0.38705055313209        0.23858034822628
C          -12.40148801720266        1.13386175343622        0.47272883768907
C          -12.30753689683233        2.50381352255144        0.65538463500176
C          -13.52231205052676        3.38380013640120        0.91889376472895
C          -13.62446428158632        4.44926258884291       -0.18282146838846
C          -13.36396822089124        4.06456040204674        2.28687881156575
C          -14.83267732479982        2.59030561438263        0.93297433926863
C          -11.03883837157271        3.09869311494567        0.60777050231971
C           -9.88209310245347        2.38289325673155        0.37565240109229
C           -9.99136624372651        1.01508532669805        0.17666026088952
C           -7.14567475370276        1.27001804337393       -1.00725164201480
C           -5.79027860259270        1.52038076822378       -1.07801651048429
C           -2.98597864824673        2.40582964004634       -0.49710764619289
C           -1.63460085620999        2.69466462304743       -0.55120707075077
C           -0.72416707860321        1.65452946384639       -0.45166603490546
C            5.77797976455646        1.38534910254492       -1.19881714637113
C            7.13155247358148        1.12549019771859       -1.12239613529013
H           12.31140605777044       -6.26746619602701        2.02514905087222
H           10.66024394413731       -5.69364437989531        1.80409674299134
H           11.80838741481153       -4.72572761539497        2.72625688335258
H           14.01260412641108       -3.85290113079067       -0.18284484535973
H           14.19216030170857       -5.26613755777255        0.85061303362063
H           13.82925013441723       -3.70305302489166        1.57453350468001
H           12.24732667689108       -5.06230340143820       -1.54079918142958
H           12.57005790228727       -6.46887664108246       -0.52155778519584
H           10.91893309972006       -5.89072226405772       -0.73215549101275
H            9.46609889608369       -4.52808307712683        0.29958667952906
H            7.98987923269748       -2.61792425020740        0.02504694104846
H           12.90069319793380       -1.96902152064308        0.41957279480914
H           13.36386075917106        0.63083510876962        0.25257987807040
H           15.72831709869534        3.30154068212324        0.19985647131829
H           15.00338782263833        1.94149569253612       -0.65115653514971
H           14.91148305303142        2.04079710738823        1.11683349572835
H           14.37909959714543        4.98671651547491        1.33979386457947
H           12.62051069589411        5.00083174560291        1.23054910083511
H           13.42775234018067        3.78026252306091        2.21222308165731
H           14.52448458892267        4.86595902800418       -1.22055113392536
H           12.76549689646898        4.87594552592367       -1.31853169896714
H           13.67842107061142        3.57415286985933       -2.07851669764262
H           11.00624158743990        4.19026155500617       -0.10874855585205
H            8.95628012266801        2.88729867954666       -0.16357061954606
H            7.12532638091105       -0.94079575418912        1.55362727792743
H            4.71311658762559       -0.51301364211473        1.38110888931390
H            3.71629876230354        3.18493095606231       -0.64267092078216
H            1.30950360384256        3.70367926614598       -0.71865330323470
H            2.86296055291788       -0.97418297304241       -0.13759770285977
H            0.87695425501473       -2.00033800812891        1.21353106037296
H           -0.00306565073969       -0.66164230403245        1.96073622326417
H           -0.88958609736068       -1.99648917811702        1.21453112405398
H            0.87637414017355       -2.25003523185585       -1.32813343381415
H           -0.00586710681804       -1.08336959100810       -2.31990327655415
H           -0.89128784004874       -2.24679074137570       -1.32715271357956
H           -2.86707287112173       -0.96478624117602       -0.15589946454901
H           -4.71056106615985       -0.68660488324886        1.23738065045340
H           -7.12043696172099       -1.13388857547268        1.36876851951847
H           -8.02514885414182       -2.55375306379143       -0.53152659990819
H           -9.51976184739190       -4.47179010234413       -0.62741653274167
H          -12.67012014115705       -6.15267262184974       -1.79407136195496
H          -12.36673033327319       -4.55476984778894       -2.48371431403314
H          -11.02104968716910       -5.54452121637383       -1.92301177638432
H          -10.69479510601966       -5.93236181742063        0.58674150815652
H          -11.80437003716812       -5.18696434124896        1.73530885703770
H          -12.34771913158952       -6.52640572742806        0.71962294340000
H          -14.07174612027271       -3.66647107913232       -0.84043207024447
H          -14.24256544985858       -5.27135502442599       -0.13909705531078
H          -13.83749324572974       -3.90932283358728        0.90036016528127
H          -12.91924948053030       -1.96916165182339        0.11051865324731
H          -13.34896320321380        0.62262991027269        0.51316226452835
H          -14.49957279600668        5.07503846054837       -0.01873490380880
H          -12.74710135623216        5.09008359024825       -0.19873888907873
H          -13.71712505164685        3.97412132135924       -1.15770239296754
H          -13.26306985561973        3.31525198157920        3.06996212645172
H          -14.23701341208436        4.67667838515896        2.50459870370358
H          -12.48561612260941        4.70375913092125        2.31317815274798
H          -14.82867942856917        1.84192510068665        1.72233541888613
H          -15.00375773761876        2.10076025924891       -0.02323854413348
H          -15.66416542066363        3.26800211274057        1.11738338581395
H          -10.94825881580263        4.16332474726107        0.76242857622063
H           -8.92179532019749        2.87721524872399        0.36256563078673
H           -7.83335923713436        1.80724155189683       -1.64373024291643
H           -5.42367022668512        2.25327619463115       -1.78157142032695
H           -3.70250439608745        3.21292068589485       -0.54745723037072
H           -1.29851874559652        3.71535464924146       -0.66156410197877
H            5.40324428364225        2.03316127384331       -1.97792035688004
H            7.81116176315226        1.56239772416265       -1.83913088918162
