  137
       -184.09258099
 C         11.5735537875       -5.5581665013        1.4641748088
 C         12.0483601197       -4.7163560622        0.2711268581
 C         13.5431618216       -4.4383658797        0.4524642681
 C         11.8651351127       -5.5093169150       -1.0308405084
 C         11.2214124181       -3.4417087081        0.1977236794
 C          9.8314568308       -3.5448734148        0.0503505400
 C          9.0005904557       -2.4454039379       -0.0184456263
 C          9.5756791577       -1.1863984130        0.0735835635
 C         10.9768128712       -1.0550675872        0.1869391047
 C         11.7889221170       -2.1779641507        0.2539185854
 C         11.2533661086        0.3556686886        0.1902496530
 C         12.4270926908        1.0884714073        0.2914115778
 C         12.3751813225        2.4739033236        0.2922181217
 C         13.6214069592        3.3408935781        0.3888917873
 C         14.9084059136        2.5149185965        0.4652323910
 C         13.5364009957        4.2081680319        1.6530008318
 C         13.7056610386        4.2391404368       -0.8534628104
 C         11.1219176260        3.0965509972        0.2121736194
 C          9.9395365880        2.3925835381        0.1103841019
 C         10.0060403565        1.0073216175        0.0760687529
 N          8.9976621176        0.0662775043        0.0070826323
 C          7.6348717802        0.3298961411       -0.1114384694
 C          6.7061397063       -0.3467901112        0.6885604648
 C          5.3643925489       -0.0971115555        0.5629139527
 C          4.8672230580        0.8500607864       -0.3601116520
 C          3.4620988425        1.1065614787       -0.4860158969
 C          2.9794618020        2.3563842056       -0.9618609193
 C          1.6484697820        2.6330128370       -1.0685543383
 C          0.7040391668        1.6422641200       -0.7188641033
 C          1.1755592759        0.3724925072       -0.2577718458
 C          2.5025813541        0.1167404560       -0.1332991066
 C          0.0038170952       -0.5406560371        0.0318026698
 C         -0.0094348986       -0.9807414109        1.4990467773
 C          0.0193278311       -1.7632300479       -0.8923736923
 C         -1.1695310610        0.3630182800       -0.2808170018
 C         -2.4959153066        0.0951514437       -0.1851773618
 C         -3.4602942930        1.0816073988       -0.5413826242
 C         -4.8639327245        0.8171811498       -0.4394428661
 C         -5.3689915255       -0.1915277177        0.4144480118
 C         -6.7112864164       -0.4424186319        0.5234129565
 C         -7.6386115770        0.3013996111       -0.2169205522
 N         -9.0042943827        0.0551802300       -0.0947734024
 C         -9.6091352294       -1.1857812425       -0.1051307891
 C         -9.0675375142       -2.4441390469       -0.3233469143
 C         -9.9207100317       -3.5285084654       -0.3092987940
 C        -11.3010472941       -3.4092476926       -0.0963340211
 C        -12.1538704018       -4.6688990448       -0.0860387234
 C        -12.0230371800       -5.3803770565       -1.4402301266
 C        -11.6654832733       -5.5943957574        1.0375088208
 C        -13.6370866310       -4.3732877845        0.1530778812
 C        -11.8357510046       -2.1433350982        0.0887605821
 C        -11.0007598750       -1.0353966825        0.0804595300
 C        -11.2415959054        0.3753972471        0.2178657319
 C        -12.3885016515        1.1209891876        0.4491330513
 C        -12.2997717135        2.4991213099        0.5734282669
 C        -13.5137353847        3.3793155133        0.8293877897
 C        -13.6589027595        4.3833117457       -0.3230071418
 C        -13.3200989206        4.1319239895        2.1537451022
 C        -14.8134454975        2.5756642243        0.9266385880
 C        -11.0376842490        3.1004438412        0.4735156377
 C         -9.8810349775        2.3834647047        0.2452804740
 C         -9.9849254898        1.0080884580        0.0988489623
 C         -7.1636136350        1.3015529154       -1.0743665969
 C         -5.8202294655        1.5498190332       -1.1812316738
 C         -2.9749456262        2.3419140020       -0.9923131145
 C         -1.6449612504        2.6259803033       -1.0812964156
 C         -0.6985017311        1.6380434758       -0.7284685134
 C          5.8230976205        1.5277027105       -1.1494002994
 C          7.1651183093        1.2729329362       -1.0337147166
 H         12.1719828277       -6.4633077944        1.5456200688
 H         10.5322037566       -5.8485886438        1.3570366591
 H         11.6762338431       -4.9918990798        2.3877390092
 H         13.9419198547       -3.8765715868       -0.3890657873
 H         14.0824243252       -5.3815700840        0.5112220665
 H         13.7293605224       -3.8870508433        1.3713286327
 H         12.1846147802       -4.9116615053       -1.8819635147
 H         12.4618611934       -6.4185303036       -1.0031511354
 H         10.8263800512       -5.7885031243       -1.1824174371
 H          9.3781997652       -4.5217767605       -0.0190027115
 H          7.9373304634       -2.5697559527       -0.1556031174
 H         12.8533428329       -2.0405043221        0.3435876714
 H         13.3609744028        0.5582353177        0.3726794231
 H         15.7643014051        3.1832095755        0.5305068282
 H         15.0302835671        1.8987051502       -0.4225509428
 H         14.9132089170        1.8776072441        1.3463791264
 H         14.4320341990        4.8181165981        1.7496614138
 H         12.6759876687        4.8704588790        1.6229577555
 H         13.4503418355        3.5777898216        2.5355624371
 H         14.6040836136        4.8513948256       -0.8127458370
 H         12.8466322354        4.9003521853       -0.9244252117
 H         13.7426930607        3.6305371491       -1.7547470584
 H         11.0647233045        4.1739345084        0.2350311848
 H          8.9937094842        2.9111724980        0.0743190516
 H          7.0619898923       -1.0421771600        1.4346308288
 H          4.6781710724       -0.6017501866        1.2252868226
 H          3.6952807623        3.1278453654       -1.2039360861
 H          1.3110417796        3.6004753118       -1.4101992065
 H          2.8411134921       -0.8555053282        0.1920974782
 H          0.8725713759       -1.5761930845        1.7238725144
 H         -0.0165651092       -0.1101839888        2.1516407780
 H         -0.8940922777       -1.5781527836        1.7074467446
 H          0.9028043235       -2.3690419449       -0.7039095966
 H          0.0319488332       -1.4458793217       -1.9329863438
 H         -0.8651109139       -2.3743311377       -0.7269461586
 H         -2.8285515044       -0.8836101689        0.1254369472
 H         -4.6884073437       -0.7479778482        1.0395948949
 H         -7.0700453499       -1.1904317579        1.2154106666
 H         -8.0132573685       -2.5766690628       -0.5131789236
 H         -9.4940536128       -4.5056941009       -0.4757653178
 H        -12.6441394924       -6.2734476327       -1.4549400466
 H        -12.3461571946       -4.7212437958       -2.2434834125
 H        -10.9966228800       -5.6775553018       -1.6363143501
 H        -10.6311326361       -5.8901056667        0.8867415372
 H        -11.7389079407       -5.0892109545        1.9984351482
 H        -12.2752320046       -6.4946649781        1.0730382211
 H        -14.0419400062       -3.7418418492       -0.6343582916
 H        -14.1963269382       -5.3066470968        0.1552987664
 H        -13.7894838103       -3.8885212490        1.1145643747
 H        -12.8920111862       -1.9926328927        0.2352733276
 H        -13.3303734291        0.6058664541        0.5356505422
 H        -14.5295337177        5.0154578266       -0.1617372069
 H        -12.7845389514        5.0228190445       -0.4044987548
 H        -13.7845486945        3.8560355186       -1.2664799049
 H        -13.1859727655        3.4257274194        2.9705572946
 H        -14.1929965310        4.7452961500        2.3668702114
 H        -12.4496525814        4.7808037219        2.1189714535
 H        -14.7738247976        1.8665987314        1.7502719904
 H        -15.0121765169        2.0393229504        0.0017018259
 H        -15.6454446272        3.2533080964        1.1071557034
 H        -10.9514246471        4.1702923647        0.5853482741
 H         -8.9253824925        2.8830709186        0.2005217998
 H         -7.8676211036        1.8514463347       -1.6818268067
 H         -5.4874800453        2.2939398791       -1.8878242945
 H         -3.6887575086        3.1151527535       -1.2332031634
 H         -1.3089634249        3.5989160510       -1.4086547218
 H          5.4897694326        2.2266528125       -1.9008065459
 H          7.8704009446        1.7706949166       -1.6830076458
