137
 energy: -184.248259895683 gnorm: 0.000038625408 xtb: 6.7.1 (edcfbbe)
C           13.29679686817830       -3.99631779027879        1.99509212727360
C           12.73117436244996       -4.17561843138349        0.57802838781087
C           13.85701571907099       -4.01329368808535       -0.45448347080135
C           12.18593106481353       -5.60250482630552        0.46262782665251
C           11.66905253878310       -3.11191428982324        0.32960335088250
C           10.33685484996580       -3.43112371006267        0.05087184619172
C            9.36965511261813       -2.46845112144655       -0.17594606906882
C            9.74543927421443       -1.13630417632375       -0.13268065472133
C           11.07955395263965       -0.78539644348624        0.17042402951514
C           12.02756738074374       -1.77141225286249        0.39382309970206
C           11.12743227783420        0.65155573006135        0.19261253264249
C           12.14494565524071        1.56539422847164        0.41713392661483
C           11.88467426486902        2.92856123348873        0.35708471842867
C           13.01760082131549        3.91200087930976        0.62293643786191
C           12.57225324154683        5.37480617638723        0.53062648453330
C           14.13217216097692        3.68816193504427       -0.41023282837867
C           13.56588111506976        3.67184137578699        2.03785081648830
C           10.58659033890200        3.34445242842387        0.04663567418611
C            9.55202735701868        2.45535361170845       -0.18283583706326
C            9.81842007408171        1.09939732833106       -0.09151077283860
N            8.99088766615979        0.01077097141824       -0.28952449108437
C            7.61951637051066        0.05928176899502       -0.57404308784063
C            6.76738336298113        0.84092065226999        0.20182987646330
C            5.41615725717948        0.88133660686440       -0.07679068274271
C            4.87819400982950        0.14446737705246       -1.13096101122904
C            3.43663182626689        0.17995204798969       -1.41579039583026
C            2.97654858969714        0.24829648906749       -2.73129517302630
C            1.62414123176137        0.27703503609395       -3.02048271725812
C            0.71581221323592        0.22838266665149       -1.97476932623557
C            1.16721259280013        0.15892357362515       -0.64764879877353
C            2.51358467798684        0.13895338249875       -0.36689685051411
C            0.00007076576427        0.11197698072998        0.31421145804866
C            0.00483949370906        1.32781970148528        1.24768939817696
C            0.00319209051655       -1.18609747597868        1.12875787969115
C           -1.17568821155444        0.16006043568847       -0.63703961141885
C           -2.51948871019939        0.14082430005378       -0.34405796759391
C           -3.45206579475354        0.18395896981531       -1.38441566348320
C           -4.89122796372287        0.14878155904427       -1.08788782538416
C           -5.42044496919885        0.87826849550385       -0.02416907133760
C           -6.77018028477384        0.84000744292425        0.26245879526436
C           -7.62968396354427        0.06844006438364       -0.51522365067543
N           -9.00066804758397        0.02610749060450       -0.22786841406810
C           -9.76489912699881       -1.11668744726081       -0.08970964342818
C           -9.39785036541819       -2.45114754370001       -0.13856647425638
C          -10.37448706148878       -3.40840073769893        0.06905073624679
C          -11.70783519132834       -3.08153332966815        0.33406478249449
C          -12.78021988398838       -4.13953324587927        0.56180016654501
C          -12.24325198839877       -5.56936877775684        0.44400829171228
C          -13.36251625680963       -3.96546579965844        1.97271402781961
C          -13.89162842189800       -3.96259325423003       -0.48386135228561
C          -12.05797478025758       -1.73926391391915        0.40351849460384
C          -11.10027859375713       -0.75812824134975        0.19902094934458
C          -11.13860255049951        0.67862708382517        0.22846978118617
C          -12.16104166500509        1.59530948655293        0.43825381642813
C          -11.89185056433035        2.95322763777949        0.38313872729535
C          -12.96263509147506        4.01378872360826        0.60272773327485
C          -14.34089083773266        3.40889824853771        0.88794894767523
C          -13.07777818690647        4.88349115951326       -0.65834180041430
C          -12.56986895971322        4.88821633347358        1.80292381425256
C          -10.58102908490360        3.36250913045508        0.10128509955434
C           -9.54626027991057        2.47472276459578       -0.11277706844224
C           -9.82392623554517        1.11846945323775       -0.03398115188825
C           -7.11170025986268       -0.66167257401602       -1.58189011545068
C           -5.76021433561546       -0.62145792799980       -1.85944055302165
C           -3.00360269642640        0.25410927326230       -2.70394293210323
C           -1.65389852078879        0.28096308391170       -3.00544534171424
C           -0.73615934802580        0.22964692990845       -1.96812846340198
C            5.74000147047073       -0.63348839123365       -1.90264376915025
C            7.09306713272602       -0.67644154120386       -1.63261414393818
H           14.04488886173298       -4.75954934354781        2.20052337168343
H           12.50023188587583       -4.08560232681583        2.73152151652336
H           13.76280897468858       -3.02209913194351        2.11535417366347
H           13.46158815011097       -4.12329822757106       -1.46259450072605
H           14.62162330517819       -4.77193772494360       -0.29889515711042
H           14.32709940215493       -3.03661599204205       -0.37871142262951
H           11.78656338226429       -5.79043586911188       -0.53158195774735
H           12.99180047270169       -6.31229558040515        0.64026745913349
H           11.40876908524196       -5.78658811481981        1.20113238150115
H           10.02799163207612       -4.46277943237194        0.01149188271732
H            8.34738125661963       -2.75781979376250       -0.36980485512751
H           13.04066363959708       -1.47808222422399        0.62317785966731
H           13.13639863797649        1.19861961177781        0.63505801627831
H           12.20630628557773        5.61161186947094       -0.46597590020580
H           13.42040703551649        6.02436718559428        0.73925712575856
H           11.79453444399171        5.59446437491282        1.25878107468299
H           14.94480157718669        4.39287913576640       -0.24471696789796
H           14.53647276758888        2.68167751414174       -0.34530997163695
H           13.74674664396698        3.83573423716969       -1.41742335735839
H           12.77619756372220        3.80702610811422        2.77469324048423
H           14.36622338238092        4.37640150912148        2.25555963536773
H           13.96104990655528        2.66529597485537        2.14440581076025
H           10.36147773736388        4.39585190374839       -0.02431137339973
H            8.56666584755887        2.81834395311998       -0.43526615860836
H            7.17058699015382        1.40516239925257        1.02986399254677
H            4.76878924851106        1.50285324515349        0.52439821545613
H            3.69432372300415        0.30059702870137       -3.53741441379025
H            1.28600018353034        0.33654747329899       -4.04473785700225
H            2.86591507502148        0.06764485575512        0.65179607961381
H            0.89092628383780        1.31553341202059        1.87795896762844
H            0.00306425492229        2.24858594237400        0.66727759897234
H           -0.87592240206276        1.31681295304673        1.88540693639300
H           -0.87754930505117       -1.23416360618885        1.76481342868488
H            0.88975308084837       -1.23511332809100        1.75659803940440
H           -0.00035753882152       -2.04867226099230        0.46505620109446
H           -2.86234932968108        0.06847567874892        0.67778045105679
H           -4.76766997520029        1.49309142268468        0.57804981144174
H           -7.16629188775086        1.39863481319626        1.09771384033367
H           -8.37531302532312       -2.74616357427430       -0.32248648182966
H          -10.07266804442344       -4.44196625886175        0.02535910273445
H          -11.47611057205136       -5.76319865640094        1.19046874819218
H          -13.05587014490716       -6.27480615874331        0.60775590989183
H          -11.83340249456907       -5.75398294336529       -0.54655945618805
H          -13.82326940463257       -2.98882112220707        2.09340566960570
H          -14.11831860971026       -4.72483526611697        2.16364836331478
H          -12.57593009083500       -4.06502885955248        2.71851148097127
H          -13.48384740339857       -4.06757635709331       -1.48759693858729
H          -14.66279708221123       -4.71762019069645       -0.34385281625094
H          -14.35663500948844       -2.98360779381086       -0.40670920471283
H          -13.07171589373332       -1.44036406522902        0.62234486370385
H          -13.15291862035042        1.22410255300559        0.63615684381691
H          -15.06355007619644        4.20880097416529        1.03819720007814
H          -14.68170680060808        2.80129802331930        0.05254364653881
H          -14.32231021895437        2.79983674394060        1.78903069903795
H          -12.14697038862805        5.40265944026684       -0.86968171654832
H          -13.86087533212110        5.62819178405877       -0.52994249258888
H          -13.32592449131152        4.26550185861677       -1.51938731652536
H          -13.32987066047897        5.64711623084013        1.97845066647567
H          -11.62070055252281        5.38980839564880        1.63499483113489
H          -12.47859543854093        4.27721891464730        2.69907681370193
H          -10.35765441581552        4.41709106855706        0.04163891888035
H           -8.55448942301702        2.83321548085495       -0.34551031637458
H           -7.77681795468584       -1.25154838861791       -2.19534149198112
H           -5.36882622028993       -1.20574461835591       -2.67934514304130
H           -3.72835311866586        0.30915452420855       -3.50359269667070
H           -1.32502761201023        0.34117001992326       -4.03267439143967
H            5.34161682106376       -1.22213706527866       -2.71606796307200
H            7.75250905039724       -1.27337965632927       -2.24535640405107
