137
 energy: -184.163375041410 gnorm: 0.000052180860 xtb: 6.7.1 (edcfbbe)
C           11.69313669117405       -5.55375413664081        1.38729335813834
C           12.12123846120800       -4.72062534430689        0.16963953484721
C           13.61898483211358       -4.42562628726178        0.29770801206011
C           11.90447756896232       -5.53133576154940       -1.11709410839390
C           11.27787529765153       -3.45482739576268        0.11330872235619
C            9.88710050481896       -3.57184618389212       -0.01805196809861
C            9.04307106818624       -2.48090438229602       -0.06954143262867
C            9.60430771952447       -1.21576023328928        0.02772005237665
C           11.00482420333286       -1.06953684720130        0.13172485528744
C           11.83040165806697       -2.18386442227984        0.17751261065509
C           11.26545206388028        0.34523843663669        0.15356487367291
C           12.43079349532354        1.09040229225954        0.26382707468327
C           12.36368017520017        2.47585507493386        0.28958783427932
C           13.60076183737782        3.35573296560913        0.40133631075875
C           14.89722584780580        2.54307680470140        0.47653629481043
C           13.50070773480104        4.21025825696090        1.67414038450985
C           13.68096241505975        4.26807836144351       -0.83207671550345
C           11.10260054263490        3.08427437820484        0.22142974531095
C            9.92774320272150        2.36776338330669        0.11257534554134
C           10.00998154094058        0.98390784046450        0.05582870723155
N            9.01087236509028        0.03169500778417       -0.02055244279587
C            7.64443924694926        0.28580738050032       -0.12719799176092
C            6.72454298520335       -0.39829034715798        0.67715860388952
C            5.38092688226841       -0.14767153874617        0.56978680808344
C            4.87137734783881        0.80770941223911       -0.33870385318958
C            3.46509853817143        1.07391367744444       -0.43950234203341
C            2.98395482601698        2.32902346990186       -0.90346565213175
C            1.65322688798528        2.61658070125832       -0.98759374376442
C            0.70598148013728        1.63266647578117       -0.62619449062462
C            1.17404341912195        0.35906192344987       -0.17235451023293
C            2.50162896094084        0.09249446204901       -0.07177961264225
C           -0.00176829816114       -0.54423964421398        0.13611160680301
C           -0.00266071065411       -0.97234859649318        1.60795146868412
C           -0.00480689467001       -1.77600262672883       -0.77697329724268
C           -1.17279560316618        0.36581294627960       -0.17117145331208
C           -2.50136226817814        0.10569146070244       -0.07151194363445
C           -3.46198644866325        1.09492594214876       -0.42987322401637
C           -4.86851187221259        0.83633705758518       -0.33001257171542
C           -5.38216767706572       -0.15407095831672        0.53960818787813
C           -6.72639617336429       -0.40171842212437        0.64106411036874
C           -7.64633010167640        0.32624274677810       -0.12408923728506
N           -9.01371235336077        0.07562192143035       -0.02011984926478
C           -9.61361906746883       -1.16908782915259       -0.04071296478717
C           -9.06059973377608       -2.42686056047319       -0.23274125480581
C           -9.90974590878602       -3.51496200515363       -0.24055998841142
C          -11.29704323417903       -3.40083784224765       -0.07389305522878
C          -12.14666525553658       -4.66376975555492       -0.08761264294673
C          -11.97993066121172       -5.36996721888039       -1.44168478070380
C          -11.68324099410371       -5.59384800584353        1.04392975041938
C          -13.63688179199082       -4.37378022543796        0.11709838592892
C          -11.84167664670231       -2.13466040035010        0.08491268355961
C          -11.01128117488460       -1.02311249147552        0.09675877293575
C          -11.26279538639907        0.38894704576757        0.21224172336189
C          -12.42080921094427        1.13202672132575        0.39151297702307
C          -12.34421764701907        2.51309520382275        0.50038598905639
C          -13.57235478542634        3.39015646082378        0.69778868450517
C          -13.66353990319461        4.39878963224292       -0.45720852874360
C          -13.44518892452907        4.13839237077326        2.03349589711076
C          -14.87434473186707        2.58346000128548        0.72686433136681
C          -11.08104521482531        3.11835471782011        0.44343014806536
C           -9.91329493579041        2.40396494483969        0.26652657458719
C          -10.00537023856194        1.02625169013739        0.13087422453405
C           -7.16213953512880        1.31112215169735       -0.99419420115150
C           -5.81721310487884        1.55711474886739       -1.09242711171567
C           -2.97196358728772        2.35160804777206       -0.88391280908334
C           -1.64006172941147        2.62985515207270       -0.97373038541991
C           -0.69739258482253        1.63762369706774       -0.62283704765545
C            5.81842290344331        1.48689134775995       -1.13836403943986
C            7.16206937803214        1.23209688822297       -1.04009827544092
H           12.29738370054787       -6.45619343570120        1.45461606084353
H           10.64928438958033       -5.84773679000839        1.31988473167602
H           11.82705346237717       -4.97927051019199        2.30203602369156
H           13.98082949282326       -3.85939146425642       -0.55763881286382
H           14.17024078321044       -5.36319250260995        0.33666129934127
H           13.83291677507279       -3.87289008574348        1.20976255524196
H           12.17715913504717       -4.93649788724168       -1.98680588035383
H           12.52237768867602       -6.42693457863901       -1.10344504868286
H           10.86751435709925       -5.83679552308980       -1.22565041907557
H            9.44303392910482       -4.55307878914845       -0.08827287014517
H            7.97970467954270       -2.61672784701202       -0.19574881343220
H           12.89416466843154       -2.03525869728551        0.25761427445226
H           13.37136291096931        0.57052312912980        0.33494756665574
H           15.74526780736876        3.22116792853066        0.55057746959106
H           15.03103778315146        1.93515404374388       -0.41544467382792
H           14.90533137250485        1.89941351340599        1.35335775439639
H           14.39159449818310        4.82568356812661        1.78205971746639
H           12.63602339996581        4.86752516837304        1.64591942121506
H           13.41420187622967        3.57110527566097        2.55084575171746
H           14.56852841254383        4.89510024869755       -0.77661972445968
H           12.81142205297855        4.91561831341741       -0.90448561337316
H           13.73693104581025        3.66978298703448       -1.73963740223782
H           11.03203782931675        4.16055812628776        0.26081031643230
H            8.97591420779085        2.87641122026727        0.08665868695146
H            7.08789924563763       -1.10056541580262        1.41321112661181
H            4.70337182461112       -0.65874692793647        1.23634252617647
H            3.70047287321164        3.09692711542633       -1.15574489924722
H            1.31878975024174        3.58845439391079       -1.32145216088011
H            2.83735400855936       -0.88285028443288        0.24739416186733
H            0.87986774549476       -1.56855745023095        1.82863734457032
H           -0.00110663316962       -0.09650728629146        2.25426206433800
H           -0.88740418518488       -1.56527785396408        1.82861126390309
H            0.87737814506564       -2.38504777165166       -0.59302927931955
H           -0.00329343304507       -1.46884185591134       -1.82125466858398
H           -0.89064645614456       -2.38003562908661       -0.59413982189344
H           -2.83955075354427       -0.87024713548527        0.24262582641927
H           -4.70671479477050       -0.69908257447475        1.18064631029255
H           -7.09116886907164       -1.13690600644719        1.34368566071096
H           -7.99993215473132       -2.55708451005938       -0.38565033097597
H           -9.47307946321081       -4.49098140680578       -0.38763338208160
H          -12.59636133985902       -6.26607701672350       -1.47454298129543
H          -12.28671171617436       -4.70991216511381       -2.25092946303253
H          -10.94745448095230       -5.66148140946138       -1.61351023626220
H          -10.64659577577575       -5.89211932707105        0.91416440639557
H          -11.77592377001671       -5.09174244416252        2.00518521558058
H          -12.29549290854043       -6.49320624751645        1.06354133848941
H          -14.02702506123802       -3.74520648018171       -0.68023186524765
H          -14.19208607387156       -5.30977234962550        0.10764335570265
H          -13.81318267292424       -3.88867463305832        1.07459975539808
H          -12.90300429122409       -1.98759833166373        0.19454565513758
H          -13.36321369909544        0.61374551723499        0.44910110235048
H          -14.54870757053286        5.02096556552476       -0.34131719549664
H          -12.79358764192354        5.04898250721298       -0.48770639440134
H          -13.73139276160986        3.87506888012127       -1.40893026512553
H          -13.35131300494482        3.42923680530784        2.85382801089359
H          -14.32823971232614        4.75059295004605        2.20503668965082
H          -12.57411533473621        4.78778934262566        2.04414468621931
H          -14.87931717424948        1.87734980730617        1.55417584235779
H          -15.02120138783835        2.04374336686928       -0.20604213423573
H          -15.71610778065486        3.26044530137226        0.85928871046854
H          -11.00306464655453        4.18980678552218        0.54726684836131
H           -8.95859751779523        2.90778040842505        0.25047868366329
H           -7.85889004606635        1.85150744450219       -1.61838161183239
H           -5.47714270444099        2.28943495650895       -1.80826171465989
H           -3.68230195713195        3.12821312132371       -1.12611255657229
H           -1.30074525120101        3.60181897941972       -1.30250643537717
H            5.47698689451274        2.18987059203450       -1.88267692861081
H            7.85864819911125        1.73521255149107       -1.69490550317575
