  137
       -184.17828291
 C         11.7343990123       -5.3534257787        1.9349115112
 C         12.1923350039       -4.6238363314        0.6639721868
 C         13.6772126875       -4.2844503572        0.8208015886
 C         12.0426813513       -5.5512219442       -0.5501759511
 C         11.3284660836       -3.3873118713        0.4623798726
 C          9.9461757515       -3.5476512524        0.2956622426
 C          9.0828407766       -2.4853643052        0.1215916234
 C          9.6152944111       -1.2050968203        0.1240702321
 C         11.0071165094       -1.0184645429        0.2597740991
 C         11.8532074811       -2.1062262232        0.4318463677
 C         11.2389677191        0.3963605391        0.1704181625
 C         12.3872676887        1.1734928087        0.2504879889
 C         12.2929902595        2.5515002663        0.1519322742
 C         13.5076968784        3.4655312878        0.2214245602
 C         14.8159060241        2.6917284656        0.4065312518
 C         13.3514854587        4.4258818070        1.4089939487
 C         13.6090754259        4.2660852183       -1.0846347193
 C         11.0243775898        3.1250620847       -0.0083504358
 C          9.8675083944        2.3775371070       -0.0898519308
 C          9.9767984041        0.9971014000       -0.0194998709
 N          9.0001678578        0.0198390208       -0.0475943421
 C          7.6266634735        0.2418909789       -0.1897251015
 C          6.7202736913       -0.3685539303        0.6739712635
 C          5.3671028604       -0.1365499512        0.5372101350
 C          4.8825535851        0.7261149280       -0.4443766482
 C          3.4439481644        1.0032513350       -0.5492868059
 C          2.9945997444        2.3109372587       -0.7325648280
 C          1.6449142887        2.6066587070       -0.7861882189
 C          0.7304196453        1.5726732033       -0.6668781397
 C          1.1718391338        0.2501243548       -0.5088351495
 C          2.5154880169       -0.0354485222       -0.4421771123
 C         -0.0028553355       -0.6994864107       -0.4244033020
 C         -0.0064992234       -1.4668084896        0.9007908109
 C         -0.0036447305       -1.6723093440       -1.6083839880
 C         -1.1713731039        0.2580244171       -0.5076238438
 C         -2.5165873131       -0.0200573545       -0.4452351993
 C         -3.4413879118        1.0259751857       -0.5212665810
 C         -4.8810610706        0.7563593791       -0.4199997828
 C         -5.3639877619       -0.2241166252        0.4464125047
 C         -6.7173511983       -0.4614997899        0.5706873053
 C         -7.6297139364        0.2768300402       -0.1784870547
 N         -9.0041684169        0.0518051932       -0.0430305712
 C         -9.6376068171       -1.1734341085       -0.1008460090
 C         -9.1256450418       -2.4342871611       -0.3656806439
 C        -10.0057077838       -3.4964451797       -0.4010079593
 C        -11.3836286229       -3.3517341914       -0.1887448930
 C        -12.2698686885       -4.5873750605       -0.2523370679
 C        -12.1616997483       -5.2123491623       -1.6504992883
 C        -11.8064375361       -5.5980270818        0.8061915072
 C        -13.7439529185       -4.2679017664        0.0116001466
 C        -11.8858973826       -2.0847235954        0.0565774293
 C        -11.0232398794       -0.9971583257        0.0976383529
 C        -11.2296239020        0.4102598309        0.2984345558
 C        -12.3583772284        1.1732444106        0.5681488125
 C        -12.2372545262        2.5413437112        0.7447406596
 C        -13.4290094822        3.4389083277        1.0450137660
 C        -13.5681226157        4.4815046774       -0.0731235186
 C        -13.2043914061        4.1453220968        2.3894757467
 C        -14.7439373707        2.6596183606        1.1345397714
 C        -10.9632033183        3.1182239845        0.6522766491
 C         -9.8249891230        2.3848500890        0.3870011211
 C         -9.9608622745        1.0184884548        0.1960034149
 C         -7.1583545861        1.2481350300       -1.0579331854
 C         -5.8037307062        1.4833909837       -1.1719026350
 C         -2.9799937568        2.3347024621       -0.6719979750
 C         -1.6292964221        2.6205457569       -0.7437114864
 C         -0.7207344586        1.5782774535       -0.6571487737
 C          5.7962601077        1.3316964838       -1.3047480767
 C          7.1491441974        1.0854556927       -1.1902550804
 H         12.3509439038       -6.2335057270        2.1056907551
 H         10.6990776361       -5.6730717219        1.8572624523
 H         11.8240698779       -4.6959605301        2.7972004063
 H         14.0604842723       -3.7883486112       -0.0677207944
 H         14.2452664078       -5.2013225438        0.9651175823
 H         13.8432287882       -3.6469563254        1.6860167004
 H         12.3393221214       -5.0307507864       -1.4584092969
 H         12.6753539901       -6.4284352370       -0.4318142865
 H         11.0164053353       -5.8865133055       -0.6698421499
 H          9.5251191861       -4.5415436852        0.2986552576
 H          8.0265431081       -2.6554475348       -0.0235629893
 H         12.9100205762       -1.9253401753        0.5342711575
 H         13.3338729898        0.6802167377        0.3942316165
 H         15.6485893404        3.3913024051        0.4442380775
 H         14.9873252393        2.0098565502       -0.4230508645
 H         14.8081759626        2.1284922590        1.3367209402
 H         14.2256621273        5.0686897630        1.4889924812
 H         12.4748534230        5.0573509670        1.2964048051
 H         13.2495942675        3.8637475554        2.3349571891
 H         14.4807029598        4.9168045830       -1.0593087442
 H         12.7284553893        4.8826729027       -1.2408767692
 H         13.7065908472        3.5904287405       -1.9318955189
 H         10.9333156209        4.1988957663       -0.0682267324
 H          8.9081989205        2.8622922804       -0.1915520455
 H          7.0861869737       -1.0054432828        1.4654806644
 H          4.6754053836       -0.6002387328        1.2254816379
 H          3.7193424390        3.1092648881       -0.8028352232
 H          1.3127385339        3.6263499477       -0.9127512274
 H          2.8629089137       -1.0520741893       -0.3254380544
 H          0.8743957705       -2.1005811692        0.9731116690
 H         -0.0046139507       -0.7714886964        1.7378761866
 H         -0.8916984145       -2.0946264533        0.9724337202
 H          0.8790640250       -2.3070402109       -1.5769465810
 H         -0.0020856623       -1.1218926914       -2.5470312421
 H         -0.8887590577       -2.3036225468       -1.5779710250
 H         -2.8653219228       -1.0384691674       -0.3529879246
 H         -4.6715375589       -0.7839603923        1.0577485647
 H         -7.0794011892       -1.2038953952        1.2666045321
 H         -8.0726443255       -2.5852583173       -0.5517978718
 H         -9.6025242282       -4.4764276124       -0.6066473030
 H        -12.8034089485       -6.0881737530       -1.7211123278
 H        -12.4719680280       -4.4944319225       -2.4069268400
 H        -11.1428611169       -5.5183470739       -1.8703724016
 H        -10.7832630636       -5.9170613776        0.6293908597
 H        -11.8582462436       -5.1527043116        1.7975717284
 H        -12.4451001642       -6.4787539929        0.7890000169
 H        -14.1347347955       -3.5806481727       -0.7350637371
 H        -14.3279944888       -5.1847693747       -0.0380377259
 H        -13.8789992747       -3.8362617650        1.0005806133
 H        -12.9379755638       -1.9136028956        0.2110969327
 H        -13.3107872273        0.6756721116        0.6413697586
 H        -14.4267158405        5.1225427251        0.1157937917
 H        -12.6837529733        5.1086046213       -0.1421870301
 H        -13.7104115414        3.9863524216       -1.0315167970
 H        -13.0798158270        3.4110011374        3.1827121961
 H        -14.0595504440        4.7732664866        2.6306542430
 H        -12.3184232631        4.7732716524        2.3655438028
 H        -14.7061196592        1.9210711041        1.9318626269
 H        -14.9678815919        2.1604015625        0.1947722119
 H        -15.5585848611        3.3474359518        1.3521306325
 H        -10.8526669143        4.1819181726        0.7983607790
 H         -8.8586295014        2.8648304756        0.3447379261
 H         -7.8613329310        1.8048445221       -1.6598412689
 H         -5.4532192985        2.2247332019       -1.8747608773
 H         -3.6947132973        3.1439859346       -0.7059752799
 H         -1.2915208615        3.6403972445       -0.8533137167
 H          5.4375030613        1.9819840704       -2.0892251814
 H          7.8447661501        1.5341768364       -1.8835743454
