94
 energy: -151.518365659632 gnorm: 0.000027877524 xtb: 6.7.1 (edcfbbe)
C           -5.89858067163850       -5.39859179123914        0.83496201513584
C           -5.11975899355235       -4.60237665193517        1.65938172275797
C           -4.79428606821734       -3.31401019434337        1.27740238513256
C           -5.24048350079135       -2.82054974437431        0.05467152507097
N           -4.94480393659301       -1.49431293609792       -0.31044848644161
C           -5.92270712308664       -0.53526960542765       -0.49226715677828
C           -7.29243647601465       -0.70231719011418       -0.63034323168216
C           -8.05978766227846        0.41948089150874       -0.87895827661354
C           -7.47068129721600        1.67483784677144       -1.00599992765671
C           -6.11342667284925        1.85109406127368       -0.82619365158732
C           -5.32339893522723        0.74689051397534       -0.51516233096488
C           -3.92421364082699        0.54117935045669       -0.26157422986266
C           -3.72377544597662       -0.86413542254515       -0.22758996041493
C           -2.42925769201398       -1.40820114575592       -0.24979494384787
C           -1.87562883832806       -2.71722054302054       -0.47765682947160
C           -2.39900281804247       -3.97644441059165       -0.76129128282886
C           -1.53724101669213       -5.03071285364246       -0.99055700481988
C           -0.15623239791354       -4.85652183646843       -0.97196548014104
C            0.39405321195385       -3.61238746782702       -0.73410508368437
C           -0.46913387153954       -2.55600056521737       -0.48483902756779
N           -0.15808225362131       -1.22684449713512       -0.28146029577349
C            1.11839761271835       -0.70023856817436       -0.55089897179815
C            1.28071210884247        0.21674076529824       -1.58588696604415
C            2.53482156674183        0.71718385166665       -1.88052009422689
C            3.65997648334710        0.31018513491233       -1.16303319671087
N            4.88134085957657        0.77309215969692       -1.42212783838538
C            5.94373200344389        0.38055153962775       -0.72709164583572
C            7.24782862217250        0.88157918604300       -1.02963763257099
C            7.39864407270575        1.79978824321401       -2.08286973123227
C            8.63176778342911        2.30299033968617       -2.40601339795204
C            9.75299400247043        1.89780520190804       -1.67985865453861
C            9.62463516520026        1.00142599484880       -0.64601814794969
C            8.37823917774774        0.46526208032202       -0.28686667903415
C            8.20893225070837       -0.47961314779956        0.79244734176526
C            9.27537744990046       -0.93918140470368        1.58070711609877
C            9.08246795310690       -1.84075812238108        2.59987721797450
C            7.80454626474551       -2.32845657501193        2.87847991149537
C            6.73943445917052       -1.90049401534438        2.12974484566101
C            6.91693858186982       -0.97817630038828        1.08415297216797
C            5.77800560660546       -0.55646208299850        0.33002408412627
N            4.56725083218658       -1.03515835836983        0.59570320055977
C            3.49308366136267       -0.65190329699408       -0.09559878806540
C            2.21799438204726       -1.13386080385738        0.18485036495865
C           -1.32659100700088       -0.52021789712807       -0.14341418736947
C           -1.51334082392309        0.84981540546338        0.10355356339732
C           -0.65948436095143        1.94604941841711        0.47069612362588
C            0.67632794668268        2.07324593516329        0.84563170467417
C            1.16195096206106        3.31718202249710        1.19492108978230
C            0.33723338228285        4.43931657336325        1.21148242045503
C           -1.00410963423496        4.33517931547378        0.90023650612898
C           -1.49079276082846        3.08982312383239        0.53158005917916
N           -2.79215174926627        2.72758394796291        0.24520618069747
C           -3.88097274165690        3.57311509800252        0.53824382177490
C           -4.03053435071235        4.77533958225309       -0.14474145338345
C           -5.07844356231251        5.62086229338382        0.17536798149535
C           -5.97492872541101        5.27350445059896        1.17284600250949
C           -5.82124733287049        4.07815434790786        1.85631857900345
C           -4.77500762503447        3.22878289388881        1.54676064525288
C           -2.82720727477826        1.37419102343645        0.00869937670606
C           -6.01796785878348       -3.62140687260366       -0.77631398656491
C           -6.34447529064440       -4.90692976235682       -0.38119822865031
H           -6.15476867892402       -6.40254711799219        1.13814623636375
H           -4.76884334757812       -4.98329332710732        2.60676818051467
H           -4.19032714069226       -2.68579850423300        1.91499472029805
H           -7.74745557025476       -1.67764672846313       -0.55360718627885
H           -9.12829690133402        0.31722689822821       -0.99744306687419
H           -8.08742442159796        2.52782347185060       -1.24764040433929
H           -5.67962316473456        2.82836604501185       -0.94995549410328
H           -3.46007634041567       -4.13976841208743       -0.81961950414810
H           -1.94469756971990       -6.00821441301727       -1.20258312946684
H            0.49264577730845       -5.69813669451293       -1.16387890084790
H            1.46258750639006       -3.46198469090366       -0.75741055977407
H            0.42120175922830        0.53590075095492       -2.15476399144138
H            2.67078466541472        1.42879358092857       -2.67966847094961
H            6.51206002813536        2.09265872739537       -2.62517928382927
H            8.73764533000977        3.00781189736967       -3.21742391800134
H           10.72679248519853        2.29135952200942       -1.93230830849117
H           10.51067749908291        0.70911387022688       -0.10548891947583
H           10.27518381582569       -0.58240645419653        1.39165828227682
H            9.92442373032861       -2.17455052369872        3.18855319453105
H            7.65871854096570       -3.03791754803424        3.67961225393895
H            5.73846909791245       -2.25789904384783        2.31991424644712
H            2.09395130532343       -1.82691353193695        1.00250815097457
H            1.32770575991888        1.21742064172452        0.88865378128800
H            2.20058806700835        3.41792874877473        1.47507966989479
H            0.74682202720165        5.39738334290370        1.49513198963558
H           -1.65624696105611        5.19298064191576        0.95978169091109
H           -3.33578967843634        5.03160991231971       -0.93111414364552
H           -5.19649614888212        6.55138524392857       -0.35992514983340
H           -6.79226450266103        5.93482715292414        1.41803017323884
H           -6.51627214613351        3.80685557532280        2.63668365282015
H           -4.64433287336282        2.29792696066322        2.07786295902641
H           -6.34081437322818       -3.24164467572198       -1.73422601030440
H           -6.94433299292914       -5.52818173215621       -1.02969105001568
