94
 energy: -151.568417863716 gnorm: 0.000098310864 xtb: 6.7.1 (edcfbbe)
C           -5.91284281478426       -5.37407557900381        0.86951262382114
C           -5.13879623585267       -4.56640130396749        1.68714414188396
C           -4.80607967222295       -3.28572856710299        1.28649997521597
C           -5.23880673593779       -2.81023540196109        0.05162776055722
N           -4.93309422674443       -1.49298819042947       -0.33398980408989
C           -5.90304635143893       -0.53109784251632       -0.54318690018624
C           -7.27010547743535       -0.69285671609925       -0.71231179474427
C           -8.02723130848458        0.42986935623724       -0.98432463989720
C           -7.43053245003986        1.68192827721969       -1.10506657807631
C           -6.07706027480535        1.85296026558175       -0.89548020778755
C           -5.29896807083812        0.74806946800275       -0.56007606651824
C           -3.90521137788359        0.53920360911078       -0.27442824334078
C           -3.71101062208589       -0.86273617880266       -0.22555105796656
C           -2.41720238085659       -1.41161248345520       -0.21226057190797
C           -1.86270805746598       -2.72670866630069       -0.41114980776676
C           -2.38915412500115       -3.98190101394775       -0.70408562418043
C           -1.53245144883611       -5.04666996670201       -0.90022160326267
C           -0.15206501731163       -4.88444212817349       -0.84157985665400
C            0.40196125850210       -3.64363652508691       -0.59374407876684
C           -0.45657100597129       -2.57774172459036       -0.37430431377507
N           -0.14284365487622       -1.24351448541447       -0.17923946942893
C            1.12691107547159       -0.71887226429757       -0.44440873036866
C            1.26330294042267        0.25555793188315       -1.46494017340427
C            2.48496153338654        0.76458342613747       -1.78612136020250
C            3.63868618818842        0.32229168356009       -1.10041145699902
N            4.83933376446496        0.82765200985521       -1.41114926482449
C            5.89135008606683        0.39309604306654       -0.73901175579918
C            7.19672269463126        0.92789970140447       -1.05619162437999
C            7.31791381738728        1.88572950482197       -2.06797390281378
C            8.54530171540482        2.41515358559274       -2.39238133602071
C            9.67546976240096        1.98887974636546       -1.70329808056264
C            9.57015395069177        1.04565044534290       -0.70392616893471
C            8.33518102536824        0.48791089315426       -0.35092045714453
C            8.19807391782686       -0.51130957035919        0.70085297528989
C            9.29128224435210       -0.98531850420177        1.43650940850165
C            9.13796737868957       -1.93293223759935        2.42545005794974
C            7.88030391199178       -2.44801126697793        2.71970086443446
C            6.78687046696567       -2.00053046678425        2.01524610969229
C            6.92797997731860       -1.03893118483738        1.00968369399892
C            5.75711204909118       -0.58894717715677        0.28955479281334
N            4.57898836062129       -1.09996672588668        0.59891947735393
C            3.50476896194750       -0.66412664808775       -0.07791306941832
C            2.23040565950694       -1.17548519338603        0.23395893826344
C           -1.32025726180200       -0.52906793372373       -0.08590281290905
C           -1.50588366896022        0.84241034681100        0.14818457762465
C           -0.65626549630512        1.93689606268634        0.53412494919212
C            0.66677730654161        2.05780531721174        0.95247478563252
C            1.15034004665241        3.30005149835613        1.31026621177539
C            0.33338213802326        4.42728400189063        1.29222984933512
C           -0.99768256045913        4.32928617623999        0.93898394543089
C           -1.48180196212654        3.08514277520979        0.56270748160127
N           -2.77655545790356        2.72895028830728        0.23974665230361
C           -3.86772744672727        3.57765068525754        0.51087505888364
C           -3.99513171639072        4.78435488688213       -0.16894692194521
C           -5.04454368329481        5.63504571659112        0.13136665948607
C           -5.96656292702036        5.28836353113288        1.10542998958414
C           -5.83669075872886        4.08795079572968        1.78482841754615
C           -4.78840003028714        3.23414782377098        1.49559411069193
C           -2.81214666736426        1.37080227250388        0.01549660497511
C           -6.01050822695250       -3.62389363390613       -0.77258293154952
C           -6.34548082601466       -4.90123440186512       -0.35872644599920
H           -6.17528829970928       -6.37202176719261        1.18718885029474
H           -4.79753916355215       -4.93252676725969        2.64401192079073
H           -4.20542127377393       -2.64889382538419        1.91880142923039
H           -7.73151509465966       -1.66577352393976       -0.63966465936017
H           -9.09346182240512        0.33097815514816       -1.12637000607964
H           -8.03817323029670        2.53626223795905       -1.36556709196226
H           -5.63634535236297        2.82801931454281       -1.01506626567973
H           -3.44974911203307       -4.13316988032266       -0.79647403387713
H           -1.94327575524147       -6.02155474980730       -1.11848657349602
H            0.49543553402981       -5.73223858671168       -1.01024634849450
H            1.47275136675397       -3.50814710896041       -0.59129512815652
H            0.37582477492094        0.58136858615951       -1.98595809002686
H            2.60417059969970        1.50502501638375       -2.56163936151131
H            6.41945289125633        2.19245456677165       -2.58059188591349
H            8.63159152713348        3.15453616205729       -3.17439786441988
H           10.64358270513934        2.39900092939002       -1.95087158421494
H           10.46822860621751        0.74027633585818       -0.19214659551653
H           10.28170755004753       -0.61006655617568        1.23685693911075
H           10.00258870918591       -2.27696528119534        2.97393690597130
H            7.76398819141628       -3.19133190854756        3.49403894365098
H            5.79590327877592       -2.37649538702235        2.21696486991829
H            2.14504702913909       -1.90177440750660        1.02746756000209
H            1.30964981046909        1.19674286835685        1.02664112854463
H            2.17989748951694        3.39559855170280        1.62466291630923
H            0.73967834058125        5.38469992735912        1.58338697592838
H           -1.64586042783376        5.19163302524539        0.97413689974952
H           -3.28100240617382        5.04067455304692       -0.93788537639401
H           -5.14434654897023        6.56918237261222       -0.40162561872998
H           -6.78530249137602        5.95366914510993        1.33507311750980
H           -6.55223522324219        3.81590347900204        2.54634322488488
H           -4.67733659023465        2.29884558950759        2.02345343271187
H           -6.32272021263639       -3.26015120652003       -1.74026667541142
H           -6.94131751177812       -5.53147618322033       -1.00250602245673
