94
 energy: -151.518380036677 gnorm: 0.000112372042 xtb: 6.7.1 (edcfbbe)
C           -5.47872749458993       -5.61243177282878       -0.96054892631489
C           -6.18623421117325       -5.00596356966060        0.06464512350469
C           -5.99048533989338       -3.66548004788420        0.34779424235038
C           -5.07791185999518       -2.92887467492293       -0.39963884045207
N           -4.90904011028192       -1.55280498474096       -0.14549132970522
C           -5.90838195129418       -0.63752675874101       -0.41296634237217
C           -7.23668307396274       -0.88098842255466       -0.72745799955929
C           -8.03752871922974        0.20187553840564       -1.03417571031909
C           -7.51203172747074        1.49091582009562       -1.06362978890714
C           -6.18582657693851        1.73398165451433       -0.76663191669595
C           -5.36576440661820        0.66912907541665       -0.40003612756868
C           -3.97124205773605        0.52049880916578       -0.08353741024388
C           -3.72825031173877       -0.87361994740663        0.02902058502702
C           -2.43518305369068       -1.37089291525256        0.25267687209101
C           -1.86518236208742       -2.66811658882156        0.49474778996221
C           -2.37452080793459       -3.91621702549779        0.84372500122829
C           -1.50429461579861       -4.97768203678077        0.99354080210762
C           -0.13416300089024       -4.82287706683453        0.79934917273150
C            0.40553189835585       -3.58398248760268        0.51187243160298
C           -0.46137735265881       -2.50690289450450        0.40295824404952
N           -0.16689702442974       -1.17429889037302        0.19249381542295
C            1.09255264307824       -0.72434905758764       -0.23815441489198
C            1.20524854549202       -0.07111387545964       -1.46336662248560
C            2.44211904804649        0.34262594915222       -1.92014680206856
C            3.60070868109426        0.10581774789311       -1.17944559311799
N            4.80769184631673        0.48301157639208       -1.59630293522076
C            5.90229278110049        0.25263704965358       -0.87850995852573
C            7.19217351292024        0.64092273937988       -1.35678075512911
C            7.29497012797852        1.27191835965190       -2.60842539501218
C            8.51375535524685        1.65311694046892       -3.10601648459399
C            9.66862303544119        1.41145735446992       -2.36009007550320
C            9.58734308006308        0.79784741734278       -1.13305595168507
C            8.35693590839347        0.39452286482817       -0.59153089055501
C            8.23742149456599       -0.25390821765015        0.69363099105266
C            9.33991880405895       -0.52472251532960        1.51888944894828
C            9.19400688322635       -1.14565900077154        2.73622151209802
C            7.92903490122840       -1.52622360206688        3.18726553034047
C            6.82967463032239       -1.27640610406699        2.40796532550891
C            6.95916462811137       -0.64268527954511        1.16018040983316
C            5.78620726457169       -0.40111553451328        0.37932998725853
N            4.58997594013330       -0.79157035457672        0.80587175183715
C            3.48476786731616       -0.57654172116092        0.09092742559283
C            2.22585040577822       -0.97165388466755        0.53288506287625
C           -1.34588575112752       -0.46631541609409        0.15945484769393
C           -1.55794674824629        0.92251663213255        0.17435164562387
C           -0.72126911797278        2.07725895044462        0.36071752861226
C            0.63375983968537        2.28454243595449        0.61013588941529
C            1.09491931660705        3.57041957094068        0.80763283709440
C            0.22977175230593        4.66136656160749        0.79263456307686
C           -1.12505351762438        4.48496062804014        0.59281169221435
C           -1.58845158653465        3.19614469206083        0.37398326069798
N           -2.89171206696189        2.76927798477703        0.21508097594413
C           -3.99223685998616        3.59847526681947        0.50638741810635
C           -4.21743129105946        4.74838882366123       -0.24345916020066
C           -5.27683497970813        5.57958549758010        0.07619149754753
C           -6.11139325487187        5.26953218997862        1.13769310863961
C           -5.88503597763488        4.12461254214487        1.88463094526632
C           -4.82570404799300        3.29091702536157        1.57722703868742
C           -2.89271113636712        1.39925549248335        0.10535269293197
C           -4.37362583130415       -3.53514889367474       -1.43462532087125
C           -4.57357076164737       -4.87590753048776       -1.70753055010370
H           -5.63323950639606       -6.65866527650397       -1.17741454274067
H           -6.89086722275430       -5.57834070864550        0.64964027845022
H           -6.52845995174858       -3.18787139624366        1.15352250310599
H           -7.62774041408919       -1.88657551924865       -0.75097466173883
H           -9.07767242230930        0.04341715308121       -1.27745661241369
H           -8.15088456158018        2.31689586088974       -1.33950455130123
H           -5.79869676678040        2.73479470971652       -0.84354700300814
H           -3.42683944669581       -4.05853156133453        1.01961049991103
H           -1.89469534677590       -5.94774545313047        1.26344119168586
H            0.51921369512666       -5.67729898500229        0.89591917647638
H            1.46962762087480       -3.45806463627637        0.38382971095685
H            0.31988433630943        0.11295813648187       -2.05213529092868
H            2.53888194721850        0.84735436924824       -2.86850884992201
H            6.38334915944244        1.44392984773811       -3.16094129203182
H            8.58270903776354        2.13660974005635       -4.06928676573604
H           10.63131186598940        1.70871394596263       -2.74964354869022
H           10.49835035777427        0.62579306502962       -0.58248982670928
H           10.33070453891680       -0.24234767731746        1.20065261399727
H           10.06288996562198       -1.34029040060143        3.34781081886121
H            7.81964656037391       -2.01389944435032        4.14465664389986
H            5.83779992647035       -1.55779332392105        2.72871909404681
H            2.14109479100902       -1.44103757496041        1.50050847898189
H            1.32290933110018        1.46068025077397        0.66968884187233
H            2.14759029985263        3.72987681891044        0.99153999629354
H            0.62028726356974        5.65420556568223        0.95960896824770
H           -1.80393017599282        5.32301780068976        0.62515255639468
H           -3.57389773969243        4.97356904475698       -1.08109354166588
H           -5.45290475567351        6.46950131721791       -0.50985966634855
H           -6.93736978899090        5.92026277433952        1.38231604330844
H           -6.53237524635846        3.88162061616648        2.71379575803310
H           -4.63771757699828        2.39982403624233        2.15726514782795
H           -3.67381590138182       -2.95240832935174       -2.01468188782824
H           -4.02294186081309       -5.34534289554525       -2.50890942884286
