94
 energy: -151.568415132837 gnorm: 0.000041121997 xtb: 6.7.1 (edcfbbe)
C           -5.82232580101950       -5.41160068685898        0.60846932328426
C           -5.06405928282163       -4.63055345103186        1.46583638042269
C           -4.72143834861793       -3.33901375810355        1.11095483417197
C           -5.12904856433985       -2.82559819023460       -0.11725771916390
N           -4.81540975667931       -1.49741782366379       -0.45591956734528
C           -5.78124488420201       -0.52900458222340       -0.65347378283025
C           -7.14491764634499       -0.68471544215769       -0.85285008957896
C           -7.89658720507560        0.44621690956982       -1.10524671742909
C           -7.29767388290239        1.70094940708615       -1.17690618830279
C           -5.94842806136763        1.86477672957168       -0.93656698238646
C           -5.17679439297100        0.74963104898436       -0.62068906519965
C           -3.78852603931618        0.53109460037669       -0.31651769931954
C           -3.59524162229985       -0.87200344813095       -0.30659440256337
C           -2.30169759424901       -1.42188702559879       -0.28907053407384
C           -1.74222336743111       -2.72992553958213       -0.51911881057138
C           -2.26372901806886       -3.97743856528598       -0.85082949409474
C           -1.40361842962076       -5.03581662594788       -1.06593948032373
C           -0.02424323824388       -4.87329207948096       -0.98930420881317
C            0.52532124233575       -3.63891437610391       -0.70214704153262
C           -0.33661613216081       -2.58033541056053       -0.46174934897108
N           -0.02719948477495       -1.25171262056213       -0.22372773526188
C            1.24026122500715       -0.71120764001194       -0.46543874962220
C            1.37085799047538        0.31028348144005       -1.43997903519312
C            2.58850807263816        0.84368065143918       -1.73515483729281
C            3.74537338234735        0.37729111206976       -1.07117474645711
N            4.94166654856600        0.90846331069013       -1.35393624632157
C            5.99794717324809        0.44358626026323       -0.70928075012955
C            7.29811337683576        1.00874649264370       -0.99327731264591
C            7.40792248381118        2.03761380557766       -1.93412035835794
C            8.62970731658261        2.59971153055726       -2.22278069720028
C            9.76548959918995        2.13584592816901       -1.56806372172537
C            9.67158826171039        1.12151503673161       -0.63971390023618
C            8.44262365431834        0.52876691555113       -0.32494129341983
C            8.31767501516025       -0.54563851583951        0.65141712162355
C            9.41935622753456       -1.07200917162807        1.33702623909383
C            9.27735032101830       -2.08952904714657        2.25568387671485
C            8.02271178557305       -2.62358038980861        2.52820008188521
C            6.92136308277264       -2.12719014854919        1.87035267860374
C            7.05120657741128       -1.09573840031468        0.93496432146184
C            5.87326891343132       -0.60080672498090        0.25706682026700
N            4.69810467403765       -1.13114204479278        0.54469604560488
C            3.61882965437596       -0.66127149245165       -0.10068915133222
C            2.34734308148406       -1.19177223940986        0.19039257552229
C           -1.20768394972978       -0.54320898312894       -0.12096333465526
C           -1.39739797237508        0.81966838069197        0.15495756343746
C           -0.55386518958068        1.89975998397985        0.59066061150926
C            0.76122159333470        2.00364746776170        1.03753056998499
C            1.24000773567656        3.23305083091125        1.44291731445234
C            0.42532816209187        4.36215563771625        1.44437100970663
C           -0.89929091783072        4.27854872256821        1.06400144278136
C           -1.37870333191557        3.04771385905438        0.64092666147796
N           -2.66801015101262        2.70353989068719        0.28443078681646
C           -3.76377375413659        3.54383102664608        0.56306473188297
C           -3.88009726505895        4.77083233218978       -0.08141833397363
C           -4.93572200056456        5.61126747613493        0.22595662617712
C           -5.87450357292096        5.23435892501533        1.17238602238150
C           -5.75551409357086        4.01375772035471        1.81688664354808
C           -4.70145491495446        3.16967846660215        1.52018066130810
C           -2.70080906262382        1.35306466454218        0.01739808196125
C           -5.88473378970841       -3.61232905484068       -0.98139162296636
C           -6.22936052360969       -4.90109997857929       -0.61344082563709
H           -6.09278898211005       -6.41811325124402        0.89031907466715
H           -4.74286457831172       -5.02596093315133        2.41797475282674
H           -4.13256943528197       -2.72257932739051        1.77389147073889
H           -7.60767264489913       -1.65910502313247       -0.81847078545541
H           -8.95988204500570        0.35231612875728       -1.27073360595971
H           -7.90023559621744        2.56317903936185       -1.42280834091122
H           -5.50558303197128        2.84282131361865       -1.01787728070990
H           -3.32301591362879       -4.12752463770138       -0.95823875674852
H           -1.81083298481583       -6.00522091387486       -1.31344256043578
H            0.62639292818327       -5.71531349697569       -1.17398590917503
H            1.59582304880325       -3.50292067595233       -0.68585646110648
H            0.48195293303599        0.65318630160864       -1.94726251361491
H            2.70215795437435        1.62183785157183       -2.47370773169855
H            6.50520053376633        2.37266984724606       -2.42085251604970
H            8.70713361125022        3.39447369107730       -2.94947414383908
H           10.72913102855614        2.57201590845459       -1.78695292005075
H           10.57368177837633        0.78905278685198       -0.15246698026149
H           10.40773518902080       -0.68403280877474        1.15209648984424
H           10.14844649326363       -2.47336266566107        2.76618966544688
H            7.91530806638953       -3.42075922899960        3.24837932581526
H            5.93264456002275       -2.51750070704612        2.05532630341054
H            2.26778325266184       -1.95376656591087        0.95022762715121
H            1.40041616762610        1.13849864287765        1.09699350149795
H            2.26360991866901        3.31670383934090        1.77934886195107
H            0.82808038419063        5.30931729111874        1.77178356827376
H           -1.54633666696731        5.14102949337191        1.11395418546882
H           -3.15253013776315        5.05100034638645       -0.82913139136429
H           -5.02726811479293        6.56118057431008       -0.27994256773383
H           -6.69793725360586        5.89183415610920        1.40759580231769
H           -6.48430579543837        3.71815621011196        2.55674032095728
H           -4.59906644405112        2.21850661256750        2.02074499097344
H           -6.17702613900962       -3.21845632839158       -1.94349007812103
H           -6.81278799318212       -5.51046261908180       -1.28792463923984
