108
 energy: -177.971602118662 gnorm: 0.000084773037 xtb: 6.7.1 (edcfbbe)
C           -7.23339495083017        1.23372939692664       -0.72863633680916
C           -7.08866769516277       -0.13035863378190       -0.53031782854376
C           -5.91317524263648       -0.75994139293981       -0.89045262227027
C           -4.86660846652740       -0.02403433971300       -1.44024776543291
C           -3.59981232334257       -0.68732934328581       -1.74019606064045
N           -2.49392320265099        0.01828255597258       -1.71534840432601
C           -1.25338523080782       -0.53024281212266       -1.84225084846308
C           -0.11450965409699        0.25077374006382       -1.47856318743313
C            1.17129754322103       -0.01280631510540       -1.99195273758866
C            2.26317167892377        0.71808800725292       -1.60675327458372
C            2.13157214764074        1.75053686072944       -0.66849928400035
N            3.27192287117606        2.43561796129559       -0.22869220552789
C            3.49357565345598        3.79178215561649       -0.39575666840499
C            2.61145018437552        4.79084085736106       -0.77388412064766
C            3.10113418871212        6.08030184165272       -0.87663311035623
C            4.43808553254807        6.37070671366613       -0.62008415211214
C            5.32687640604155        5.37426205848646       -0.26449664067734
C            4.85645120096143        4.07309668035025       -0.15190669275744
C            5.48215298946656        2.81999227097958        0.16239778336677
C            6.81146689349115        2.47923570971707        0.39906919798725
C            7.14615184721071        1.16136099313395        0.62065080145914
C            6.12617422915606        0.21064713937472        0.67955861860403
C            4.75825025172948        0.51886612099397        0.48032440862151
C            4.03042624147916       -0.70467517487573        0.68905246708153
C            2.68334071505960       -1.03938337555724        0.79867166035374
C            2.33649735647479       -2.35427940992839        1.03212516647573
C            3.30510235383936       -3.34112117427466        1.19910807655128
C            4.64855825143569       -3.02830776736086        1.16720456809173
C            5.00306212235128       -1.71034093058057        0.91336411451822
N            6.25685963226363       -1.14242325836059        0.90896375710134
C            7.46059417020103       -1.82891061856238        1.13038221253823
C            8.33795426559943       -1.40695560796179        2.12461453461969
C            9.52260580909862       -2.08881655009204        2.33292411590431
C            9.83556118539491       -3.19731308856324        1.56374345308157
C            8.95898734745750       -3.62308696392092        0.57951016931443
C            7.77663950782684       -2.94197176296058        0.35711670219224
C            4.45767538034514        1.84086061458333        0.13406046393817
C            0.86783790923165        2.06783868107814       -0.18079920743134
C           -0.24030827294436        1.33693153845915       -0.56764860216663
N           -1.48588536206416        1.67962866670043       -0.01808889975762
C           -2.08759818556570        2.90822061308392       -0.15843107859847
C           -1.66275541434704        4.02248628542715       -0.86963326217309
C           -2.47791558078577        5.13764793650258       -0.86561412909488
C           -3.69147137905936        5.14873698938270       -0.17889335669726
C           -4.13255954752516        4.03578949119012        0.51200222172616
C           -3.32956507888864        2.90521807577386        0.51896729868872
C           -3.47021569200961        1.59402101431656        1.07967953893327
C           -4.46667074037244        0.91092234980399        1.75682406270408
O           -5.69119876029672        1.37250898516326        2.11125855594387
C           -6.34136876168266        0.31820931560437        2.67942324476426
C           -7.63428150150222        0.31745426809268        3.16696184100320
C           -8.11115101326597       -0.86854980412015        3.69854719653823
C           -7.32051943351139       -2.01360638768378        3.74185927451150
C           -6.02751938102841       -2.01084379475818        3.25602404295656
C           -5.52754497785907       -0.83248347613227        2.71687070377772
C           -4.28505409645602       -0.44023073429929        2.11104251712434
C           -3.08558775684217       -1.10121644682503        1.83828517599602
C           -2.08036409042892       -0.44088969331318        1.16699016825229
C           -2.29898516725417        0.87358525523116        0.75091851200090
C           -1.20900841970081       -1.90621721885960       -2.15907060410618
S            0.16476956561442       -2.95365205999124       -2.38242829560669
C           -0.88502482199861       -4.34645403317713       -2.55881582996972
C           -0.48636574658784       -5.64949641063643       -2.78201462194343
C           -1.46244254574496       -6.62367654548957       -2.90385643672049
C           -2.81433910753045       -6.29523350327410       -2.80155701978035
C           -3.21542203620912       -4.99790051462695       -2.57750671467956
C           -2.24670233553496       -3.99623459806343       -2.45620929441516
C           -2.42177548066209       -2.60750913998514       -2.21320342906328
N           -3.60191481232884       -1.98544942510394       -1.99532477466840
C           -5.01830954106295        1.34460643516767       -1.64112796840470
C           -6.20077855727928        1.96691751566895       -1.29066299944336
H           -8.15150503454687        1.72516413863026       -0.44190831342338
H           -7.89107563007827       -0.70093680954465       -0.08531480931093
H           -5.78052020395476       -1.82007787513957       -0.73593185030966
H            1.29165080063075       -0.78591599403455       -2.73270738318562
H            3.23671544784725        0.50356973953479       -2.01982589080559
H            1.57630829907097        4.57491451884038       -0.98694124884182
H            2.43188862243241        6.87771140161218       -1.16374070998150
H            4.78320159480800        7.39010616386240       -0.70802384182825
H            6.36634110701906        5.59880592780705       -0.07876142330776
H            7.57352242936493        3.24279090795323        0.38446018194148
H            8.17549675381233        0.86604840147574        0.75071828837761
H            1.91653255727368       -0.28694593241233        0.73308157714678
H            1.29317795319541       -2.62360598882174        1.10217870333059
H            2.99991322608079       -4.36016114939102        1.38397196065872
H            5.40094587235886       -3.77972436007434        1.35362974510203
H            8.07885568495135       -0.55640141200353        2.73731946280345
H           10.20062567184285       -1.75761114532144        3.10542357470945
H           10.75986885420052       -3.72891141922664        1.73186033110169
H            9.20024603889194       -4.48577649875769       -0.02356405281635
H            7.09813602521880       -3.25784629044480       -0.42130215590218
H            0.75228774111699        2.85362197147025        0.55179000588639
H           -0.73370846598639        4.01049477629326       -1.41918075868698
H           -2.17117061165995        6.01909660644665       -1.40892949648666
H           -4.29756958498895        6.04229362762944       -0.19833442686451
H           -5.07808830224847        4.03158950197776        1.03156004420653
H           -8.24124605292442        1.20771641093527        3.12826958851576
H           -9.11789868985317       -0.90606809633212        4.08668299889869
H           -7.72984372870510       -2.91958455291900        4.16353751311146
H           -5.41733094451500       -2.90036725506074        3.28941553309836
H           -2.95663317416294       -2.12789122865457        2.14371971978324
H           -1.14968582046370       -0.93672282718740        0.93655231350543
H            0.56173072161668       -5.89585359330673       -2.85663059233551
H           -1.17244047784897       -7.64848978188143       -3.07914411424627
H           -3.55539391186113       -7.07455392125983       -2.90195010730385
H           -4.25755707576279       -4.73081013115227       -2.49774608533174
H           -4.20369001214519        1.90642042241254       -2.07268218400380
H           -6.31346807777198        3.02958146968936       -1.44737552627026
