108
 energy: -177.971812927177 gnorm: 0.000069015486 xtb: 6.7.1 (edcfbbe)
C           -7.20614370629149        1.34082890737118       -0.61568160564419
C           -7.08945750588452       -0.00240492034685       -0.29462548401683
C           -5.94475186693394       -0.69696312393133       -0.63401922195785
C           -4.90050791417301       -0.04637338965200       -1.28617223196507
C           -3.66342693831801       -0.77221413776314       -1.56603085388625
N           -2.53666563632074       -0.10310573475162       -1.62707092409683
C           -1.31622948722212       -0.69872733073661       -1.74007545358381
C           -0.14861983091015        0.07873797267227       -1.47452078406351
C            1.12044191706712       -0.27062065310937       -1.97916171329383
C            2.23607669843426        0.47252638457509       -1.69936601771536
C            2.14593281337116        1.60935803609379       -0.88553170576130
N            3.30614507452807        2.32440121523863       -0.55853530062821
C            3.54074186666178        3.64366856906018       -0.90402309151299
C            2.66617811247741        4.59230659985565       -1.40842852061432
C            3.16771750312419        5.85154712683143       -1.68315204353178
C            4.50876062791052        6.15946216033573       -1.47173681608395
C            5.38961614828606        5.21024683145307       -0.98968001716057
C            4.90721787965535        3.94031829936847       -0.70364099331199
C            5.52078166740727        2.73348700922706       -0.22676734000406
C            6.84177377533146        2.42586688614847        0.08934345054560
C            7.16484983349910        1.14702815414420        0.48615693967596
C            6.14233765962664        0.20621747701505        0.61717651559504
C            4.77624030147400        0.49944378494736        0.38745122218125
C            4.03658450671573       -0.66658898560709        0.79150296864110
C            2.68593988719066       -0.97495009297075        0.93341880218764
C            2.32766258141660       -2.24193133851655        1.34528162095043
C            3.28754947230179       -3.21077924386732        1.62944238387319
C            4.63344174332341       -2.91522859721310        1.56329144340721
C            4.99922830932992       -1.63307982274981        1.17598833956551
N            6.25983914330793       -1.09274976532561        1.06455570774896
C            7.46235130025288       -1.74246346921980        1.38013632016371
C            7.61646130157316       -2.36793507708907        2.61371839438988
C            8.80230149129127       -3.01064020610519        2.91736940523310
C            9.84240102245184       -3.02689994199672        2.00284977042362
C            9.69206612725922       -2.40009577334287        0.77690350424072
C            8.50663456772249       -1.76300216996267        0.46031619491148
C            4.48731268450085        1.76807320311950       -0.12881292184190
C            0.90164086095783        2.00393432748985       -0.40446375617666
C           -0.22883072223923        1.25659725741310       -0.67855246945354
N           -1.44990095709218        1.67488089280140       -0.12697752993659
C           -2.03447952096992        2.89815490778078       -0.35713726244562
C           -1.61779572879272        3.93425850941997       -1.18221121152723
C           -2.41221424451199        5.06224435024483       -1.25032282373173
C           -3.59809576686974        5.16130452708623       -0.52355924600959
C           -4.03205463465577        4.12503018289658        0.28168456793475
C           -3.24971599926445        2.98296520165069        0.36230538491550
C           -3.39247277933192        1.73136425499489        1.04540699696964
C           -4.37471463728150        1.13347957346131        1.81729321752821
O           -5.57729690234481        1.65014563631730        2.17097550407840
C           -6.22341636610726        0.66565240372751        2.85690673383999
C           -7.49694177722795        0.73547748685289        3.38855294644551
C           -7.97291961353523       -0.38677457162283        4.04478013751826
C           -7.20025541143150       -1.53850816784177        4.16585421764251
C           -5.92669448277394       -1.60633502423806        3.63550313577760
C           -5.42810106652778       -0.49284677977402        2.97159688889129
C           -4.20282487765215       -0.18294286224078        2.28809732138531
C           -3.02569148995345       -0.89032138968190        2.03538936431447
C           -2.03527614349233       -0.31496931954707        1.27044900636481
C           -2.24709628875679        0.95990356244300        0.74274265713050
C           -1.32333428127538       -2.09631483986875       -1.94972750678907
S            0.00881805821859       -3.20361730068967       -2.13459124399390
C           -1.08916238334388       -4.56885960790691       -2.18565124488284
C           -0.73919124443688       -5.89671299527248       -2.33134005767195
C           -1.74931451741697       -6.84284068334861       -2.36066244067570
C           -3.08633214806734       -6.46255579087739       -2.24342839076751
C           -3.43864501908124       -5.14026969088555       -2.09629089355747
C           -2.43502294989495       -4.16653763149625       -2.06988445934327
C           -2.55842162819443       -2.75894190081128       -1.92014775993811
N           -3.71253405997868       -2.08537476089692       -1.71762866441684
C           -5.02408954083186        1.30122315888577       -1.61001169930077
C           -6.17652904468686        1.98773307683650       -1.27973822485212
H           -8.10003648630852        1.88354216609121       -0.34536862313943
H           -7.88938510511111       -0.50537489424106        0.22940542943849
H           -5.83422795351867       -1.74154836545514       -0.38497286879437
H            1.20927691691306       -1.12418544024597       -2.63042185402218
H            3.19604556470737        0.18866275512862       -2.10230202431310
H            1.62832956226859        4.35886532858342       -1.58742333149765
H            2.50521604442010        6.61070317031109       -2.07168168336769
H            4.86339915161794        7.15450548394638       -1.69567147016577
H            6.43204936351984        5.44704623467660       -0.83916658921167
H            7.60484630654633        3.18445582754623        0.01098332000173
H            8.18313336506590        0.88036211365424        0.72291090471684
H            1.92470398088318       -0.23752713045726        0.74694359015997
H            1.28191935210028       -2.49095234469757        1.44742686875991
H            2.97346261963728       -4.20083345999599        1.92421652523281
H            5.38021564753265       -3.65692290919591        1.80347863348931
H            6.81079646029221       -2.33327607489692        3.33175434008658
H            8.91744364000398       -3.49393360879702        3.87618271650872
H           10.76809216496143       -3.52648101715904        2.24516611458496
H           10.49939122535151       -2.41349015280278        0.05983308774773
H            8.37724976599248       -1.28966881860672       -0.50162341785859
H            0.82077964138916        2.86845572360331        0.23873936654967
H           -0.71082547703979        3.85329843524687       -1.76177213004267
H           -2.11071752959653        5.88418367841843       -1.88256049070012
H           -4.18851901539686        6.06206665555920       -0.60231786581967
H           -4.95696088985645        4.18779431542545        0.83357150496835
H           -8.09020696970328        1.63027027146321        3.28932806765305
H           -8.96481164879902       -0.36831684183149        4.47068345632209
H           -7.60825659478358       -2.39339009696963        4.68437242907453
H           -5.33038195126533       -2.50093986895877        3.72932024360049
H           -2.90278553259908       -1.88692142409782        2.42993789734274
H           -1.12241573462646       -0.84866567246279        1.05391278310815
H            0.29773175593697       -6.18300875897051       -2.41837578377190
H           -1.49774807359110       -7.88624018734955       -2.47513620680554
H           -3.85471310697788       -7.22111140381191       -2.27091824888382
H           -4.46880707265827       -4.83300070666439       -2.00629705899864
H           -4.21190370765151        1.79646664397704       -2.12046721669684
H           -6.26749802894432        3.03385589778115       -1.53247130612411
