108
 energy: -178.042353241611 gnorm: 0.000045532681 xtb: 6.7.1 (edcfbbe)
C           -7.36481216728682        1.56648614284713       -1.39511857975916
C           -7.33225684237475        0.20122094654370       -1.15860748840217
C           -6.14571088339508       -0.49423110664797       -1.28162620147739
C           -4.97697571586298        0.17619398141784       -1.63777784585299
C           -3.70796009925490       -0.54819335276627       -1.67774922211013
N           -2.59360728891038        0.18328941274244       -1.63482626382144
C           -1.41869642924778       -0.41720533701723       -1.53071608992607
C           -0.23087090487059        0.39985447892718       -1.24337558875322
C            0.97978383046352        0.13229014754884       -1.87418060277205
C            2.11834514955677        0.84297200715045       -1.56059009917198
C            2.07217606665760        1.83552076602257       -0.58262492871667
N            3.24460156976147        2.51318574653924       -0.23487819254944
C            3.44126465935229        3.87555053145587       -0.39751923927948
C            2.51828848590654        4.87954027857284       -0.64036310822951
C            2.98909895845691        6.17222571906744       -0.77540810764410
C            4.34771943351885        6.46208462056394       -0.68325747154270
C            5.27426782195431        5.46158528779379       -0.46703706613928
C            4.82317761344628        4.15590752715879       -0.32564258982021
C            5.48766785763430        2.89948420749314       -0.12258916157265
C            6.83917326251949        2.56415001169757       -0.04987586763900
C            7.20422463093807        1.24756157627088        0.11278967886733
C            6.20355848547787        0.28991949822631        0.28022367266310
C            4.81994961788271        0.59229285567632        0.24066526672213
C            4.12582565385814       -0.63580731008949        0.52628220303935
C            2.80228745527740       -0.97594625409215        0.79270110747912
C            2.49246976249058       -2.28836370303847        1.08552716340857
C            3.47833674120513       -3.26914911922482        1.14421736373958
C            4.80659830668741       -2.95247303344133        0.94337557075869
C            5.12227958343263       -1.63597125988646        0.63982928365431
N            6.36544297337964       -1.06298949326204        0.48781616161186
C            7.58951124762779       -1.74246433892433        0.58428827940899
C            8.56467507222249       -1.31090649304341        1.47817101800531
C            9.76816041261864       -1.98598408894690        1.56446179287319
C           10.00396190151236       -3.09817368901040        0.77343713119856
C            9.03059814822764       -3.53407192102043       -0.11012648471020
C            7.82820431147392       -2.85911467159976       -0.21104770835489
C            4.47701685155082        1.91614962177879       -0.04761759632795
C            0.86548393424577        2.13099065379564        0.04144593779053
C           -0.28319193604244        1.42074387051829       -0.27911238033305
N           -1.48145356824788        1.72499410750342        0.38593569308285
C           -2.17920472915124        2.90768494088327        0.21649778351404
C           -1.77170199574271        4.10063345952662       -0.35871984412032
C           -2.68376641429414        5.13792370286187       -0.40960832549321
C           -3.97617059058199        4.99584251667908        0.09112443839176
C           -4.39734560092763        3.80303245142766        0.64385510983675
C           -3.49564799520755        2.74955116548282        0.70271641222774
C           -3.59628827858256        1.39313765769925        1.14980711062312
C           -4.61934426861681        0.57175664385106        1.59797023964521
O           -5.92392934468465        0.89997713291138        1.77744385852748
C           -6.55656659048873       -0.25301206584212        2.13019839042732
C           -7.90656986521333       -0.40425636961100        2.38578569779546
C           -8.35118027244041       -1.67149401364796        2.71987117989628
C           -7.47499525042990       -2.75080142613375        2.79641560543963
C           -6.12578181730580       -2.59814216328997        2.54344130955915
C           -5.65645995066829       -1.33541589085259        2.20650218327410
C           -4.37349081619804       -0.78764928758967        1.86107297953345
C           -3.08872326140515       -1.32320880955104        1.74494683307480
C           -2.05684340083394       -0.52517333406174        1.30412838327637
C           -2.33118394288828        0.79810041661123        0.95315264236156
C           -1.35933098793006       -1.81190767328328       -1.57345624840268
S            0.01178430244675       -2.87584320238183       -1.43198992678550
C           -1.04720881271957       -4.27329019191623       -1.45716198691450
C           -0.64791499666129       -5.59770395448195       -1.37841048638739
C           -1.62121413583257       -6.57791325912045       -1.40807645588341
C           -2.97098039997338       -6.24821755346970       -1.51365731725955
C           -3.36969416619039       -4.93057602661437       -1.59320352800900
C           -2.40354638854561       -3.92958748245725       -1.56677115677853
C           -2.58710376930475       -2.50524641703167       -1.62743776130664
N           -3.74914484318566       -1.87517663958238       -1.66026793094109
C           -5.01669132305175        1.54691608905370       -1.88192899171259
C           -6.20794629791520        2.23517698867508       -1.76232486656704
H           -8.29266571989329        2.10995464601518       -1.29027979880471
H           -8.23245766409590       -0.31998462005873       -0.86645010593977
H           -6.09908834491797       -1.55411967395910       -1.08457846859321
H            1.02173394937765       -0.62952060931865       -2.63754942490383
H            3.05193761266882        0.62752647067153       -2.05601543278810
H            1.46476048848572        4.66555565197259       -0.72918198076559
H            2.28786587847805        6.97289691744758       -0.95817814364216
H            4.67759490875687        7.48468608184642       -0.79077773926058
H            6.32891946136089        5.68478178000624       -0.40994208993046
H            7.58939791516103        3.33411797773649       -0.14082580156849
H            8.24323113121320        0.95738571208201        0.11952812766739
H            2.02718803621157       -0.22844840095203        0.80702277079204
H            1.46750516977089       -2.55900448073103        1.29024074252483
H            3.20337045331994       -4.28664216613317        1.37932638642673
H            5.57929060253884       -3.69979397114748        1.04370021862293
H            8.36748476798014       -0.45728438632429        2.10933061038023
H           10.52212828695508       -1.64677483284360        2.25925760174706
H           10.94349846636664       -3.62471354879127        0.84644357009178
H            9.21121465100700       -4.39995218656192       -0.72979770517980
H            7.07281976853823       -3.18372497115308       -0.91125078318097
H            0.82548836212621        2.88186817355827        0.81624855410223
H           -0.78002818222340        4.21498205232779       -0.76908819286091
H           -2.38858069021182        6.07851472807644       -0.85116598197863
H           -4.65717161826576        5.83218269183961        0.03483554529372
H           -5.40192686537505        3.67521000293668        1.01611748209750
H           -8.57880511670808        0.43633825718987        2.32163162512932
H           -9.39998017979159       -1.82666013862754        2.92430863365708
H           -7.86175392673494       -3.72458128962535        3.05845598297030
H           -5.44870753134759       -3.43687651039952        2.60122486945225
H           -2.91503461229544       -2.36109863812490        1.98529037430952
H           -1.05630987676838       -0.91991847635901        1.20178329458073
H            0.39815235609743       -5.84856029965072       -1.29483622586002
H           -1.32962604132835       -7.61576760864257       -1.34730840055117
H           -3.70904086561192       -7.03575343298764       -1.53287795568264
H           -4.40816209880803       -4.65111291904291       -1.67479048948458
H           -4.10609624215353        2.05680561558824       -2.15489785743964
H           -6.23257044926041        3.29922217196747       -1.94636758173345
