  73
       -117.12229819
 O         -0.0945851967       -4.4012712706        0.0125865865
 S         -0.0351821925       -3.3162566050        0.9671268048
 O         -0.0260281829       -3.6728270282        2.3689532403
 C         -1.3982903980       -2.2000852413        0.6507545755
 C         -1.5545358204       -1.0861162213        1.4562749668
 C         -2.5800793390       -0.1988004541        1.2155538556
 C         -3.4690535130       -0.4075857018        0.1489539722
 N         -4.5107344003        0.4522948866       -0.0720527091
 C         -5.4218399128        0.2964878247       -1.1445223609
 C         -4.9750522312        0.3940210806       -2.4567786145
 C         -5.8497261837        0.1960825562       -3.5086813488
 C         -7.1795251024       -0.1021792574       -3.2522633474
 C         -7.6304846445       -0.1833505432       -1.9505389834
 C         -6.7693198964        0.0345959557       -0.8728975319
 C         -7.2957093556       -0.0048165086        0.4812618092
 C         -6.8942983660        0.7535061370        1.5093050801
 C         -5.8499928055        1.7639827853        1.4779081038
 C         -5.9834106261        2.9132626951        2.2601547802
 C         -5.0358047787        3.9158293111        2.2236453519
 C         -3.9242108773        3.7904822402        1.4040979721
 C         -3.7618763897        2.6526299721        0.6362484254
 C         -4.7064295887        1.6341660113        0.6817156043
 C         -3.3016570794       -1.5524848598       -0.6450066310
 C         -2.2714648445       -2.4329306932       -0.3951971301
 C          1.4022973291       -2.3061307512        0.6260853351
 C          2.1765502856       -1.8167857161        1.6617121817
 C          3.2625575811       -1.0123418666        1.3932202061
 C          3.5989769508       -0.6868785733        0.0703087854
 N          4.6627740732        0.1309887961       -0.2023444457
 C          5.0870707565        0.4260453558       -1.5202099955
 C          5.5026394592       -0.5953277052       -2.3662372085
 C          5.8763773376       -0.3154013917       -3.6670349647
 C          5.8369604399        0.9914056512       -4.1296246562
 C          5.4409830151        2.0103963283       -3.2873936248
 C          5.0788668011        1.7533639815       -1.9634501190
 C          4.7205797759        2.8607418654       -1.0924233154
 C          4.9826724171        2.9535075252        0.2173871574
 C          5.6786146303        1.9657279063        1.0254787045
 C          6.5134706525        2.3911692254        2.0609653699
 C          7.2321265641        1.4864390603        2.8154735066
 C          7.1305016627        0.1285078225        2.5528274125
 C          6.2947308177       -0.3161372217        1.5457262871
 C          5.5548068330        0.5907166957        0.7964471672
 C          2.7755257649       -1.1618521720       -0.9631745873
 C          1.6909244982       -1.9633221499       -0.6827600077
 H         -0.8738296541       -0.9325178525        2.2788614264
 H         -2.7114262900        0.6550991427        1.8614624479
 H         -3.9319828159        0.6070655277       -2.6411865826
 H         -5.4935547202        0.2644323408       -4.5253025734
 H         -7.8628546830       -0.2712378095       -4.0706164863
 H         -8.6682978648       -0.4084048069       -1.7512906568
 H         -8.1541461305       -0.6493931238        0.6200649854
 H         -7.4439798334        0.6931843553        2.4399055261
 H         -6.8525503962        3.0142997737        2.8939849829
 H         -5.1603002661        4.7972328521        2.8343583894
 H         -3.1813704907        4.5729943158        1.3706816235
 H         -2.8915480911        2.5328268593        0.0073305397
 H         -3.9943092151       -1.7535723156       -1.4469891176
 H         -2.1336411657       -3.3184755182       -0.9952974782
 H          1.9181116253       -2.0880870779        2.6730959070
 H          3.8542122217       -0.6244792494        2.2073260376
 H          5.5113684572       -1.6110093208       -1.9981783908
 H          6.1894998716       -1.1152366872       -4.3206831274
 H          6.1166948520        1.2123977646       -5.1484677452
 H          5.4190676980        3.0296224113       -3.6454298746
 H          4.2860500012        3.7159172979       -1.5941070589
 H          4.7502020011        3.8801788962        0.7265116476
 H          6.6004489999        3.4497610358        2.2592983993
 H          7.8740342836        1.8366055869        3.6094608920
 H          7.6941421487       -0.5826543016        3.1370919288
 H          6.1925704675       -1.3722780891        1.3424628389
 H          2.9898257466       -0.8899407337       -1.9847728988
 H          1.0635628991       -2.3428473461       -1.4739620782
