112
 energy: -169.623276813508 gnorm: 0.000095685842 xtb: 6.7.1 (edcfbbe)
C           -6.46380927051848       -5.07198485812183        1.25585521815858
C           -6.67887760542133       -3.98575944033077        2.08761272693919
C           -6.48595901855728       -2.69856031719211        1.62711869090129
C           -6.07329017320308       -2.47065585759650        0.31308725083349
N           -5.87222698991134       -1.17680165251798       -0.16483549465896
C           -4.96304121747046       -0.93999771235001       -1.20648828160975
C           -5.31568312671516       -0.09735238570466       -2.25894641018662
C           -4.42114903136188        0.15202619583874       -3.28109828630650
C           -3.17061653735042       -0.44175625362461       -3.27359837567774
C           -2.81765174138114       -1.28754090168886       -2.23366210301925
C           -3.70464925694712       -1.54166546405631       -1.20732764811809
C           -6.60832626028809       -0.09751176462511        0.34578938305165
C           -7.96861458260767       -0.24034620494873        0.60709345096328
C           -8.70871204092945        0.81603916220334        1.10262899250852
C           -8.10033988281856        2.03914361831159        1.33437315855444
C           -6.75331206783343        2.19650900231499        1.06526093280001
C           -5.98488566733055        1.14385426822903        0.57593832100840
C           -4.54913374596684        1.32752219020670        0.31780418710465
C           -4.10892452419875        2.23304498123418       -0.68802442027714
C           -5.01064991462574        3.02400111529326       -1.41220591200071
C           -4.57266906617005        3.94198237005160       -2.35277233648873
C           -3.21760937589025        4.10730076692695       -2.57203712653028
C           -2.30456980060848        3.31706633795831       -1.88840684990254
C           -2.71951460773096        2.33357957101681       -0.98509420184845
C           -1.77446877560487        1.48923838889800       -0.31444513311123
C           -0.38749766503259        1.51183552426364       -0.71368573795293
C           -0.06884839187439        1.31530272169003       -2.06941739018724
C            1.22611385056654        1.19289580522422       -2.49563735030852
C            2.30084431520990        1.30083864721299       -1.59272920375782
C            3.64649342694465        1.17807596435080       -2.00476917362142
C            4.66791360527178        1.25707508903313       -1.10776290734840
C            4.41889589978207        1.47788266624498        0.27005139082539
C            5.45040133768113        1.47809990660006        1.23159331848330
C            6.81383304924060        1.01807307659334        0.92466614304526
C            7.88471231948090        1.84492992976261        1.25652967412599
C            9.19420016900337        1.46149563102138        1.04433807503075
C            9.45773133312098        0.20899199916098        0.51335518740237
C            8.41438241601936       -0.63586135224555        0.19537595160726
C            7.08494951247493       -0.25171115102261        0.38006758117948
N            6.07307417642995       -1.15436259523250        0.01941628559923
C            6.23449846056651       -1.93867428037142       -1.12894910565531
C            6.85950308221396       -1.42619847735658       -2.26629937997949
C            7.01102266580186       -2.20911525726057       -3.39379699535423
C            6.54222595213922       -3.51223279083007       -3.41342272516075
C            5.92481081785552       -4.02944750117271       -2.28643727362040
C            5.77451339394091       -3.25583713304528       -1.15241174978992
C            4.92259556828727       -1.31039183183917        0.79989586375022
C            4.98908712225612       -1.21931875785604        2.18869816343422
C            3.83826476908344       -1.31395595784230        2.94736856578728
C            2.61072993790263       -1.51723031864693        2.34063108011865
C            2.54451309376896       -1.64434628231595        0.96284727170542
C            3.68652378944135       -1.54247265640503        0.19557130267965
C            5.16741342781596        1.87478533754342        2.53704096227542
C            3.88440807822259        2.17444869499027        2.93418556802222
C            2.81467806283825        2.05072324987754        2.03764151776729
C            1.47110639475458        2.27210841558988        2.42664682777638
C            0.44551231244635        2.09642371616484        1.55069678151965
C            0.67838020864383        1.69530401733933        0.21161204777111
C            2.01859302384057        1.56915585659114       -0.23009749623092
C            3.08511666511453        1.70653343518103        0.69165324017618
C           -2.22856548779907        0.58574305314337        0.70278314214969
C           -1.38031558473790       -0.35326302751252        1.29713623387110
C           -1.82769799836927       -1.21134749508028        2.29078227530509
C           -3.13808998179764       -1.13994776501699        2.72893887017690
C           -4.01585426122495       -0.26198389277027        2.11576817360765
C           -3.60643864136822        0.56098947598456        1.05881512088148
C           -5.87079605357606       -3.57064089141059       -0.52293771541253
C           -6.06001125728151       -4.85425383493915       -0.05099225386027
H           -6.61335297653904       -6.07669562662697        1.62078602997579
H           -6.99558452988256       -4.14127592886816        3.10875532496623
H           -6.65787192912397       -1.86336119567990        2.28880897447732
H           -6.29384691833208        0.36111765305494       -2.26494987490840
H           -4.70415685596845        0.81085715916131       -4.08864950990240
H           -2.47684336262038       -0.25260899581785       -4.07917945071412
H           -1.83944933692784       -1.74534396583897       -2.21737920895476
H           -3.42794690391088       -2.19354565834587       -0.39180086011534
H           -8.44175305512488       -1.19146636752100        0.41010922764897
H           -9.76236901574608        0.68598795072714        1.29926078165116
H           -8.67277674417840        2.86715475513735        1.72440612235512
H           -6.26861559799830        3.14205783168805        1.26232189222180
H           -6.06935064407068        2.91845257207930       -1.23067519576710
H           -5.29131275853103        4.53607725663554       -2.89787296747889
H           -2.86364751114671        4.84660170832833       -3.27517480517659
H           -1.24963634891620        3.47144937587301       -2.05642387983211
H           -0.88203417265687        1.18245022183694       -2.76801218634229
H            1.43811480428047        0.98641986308059       -3.53528877230633
H            3.85224156051375        1.01607641813885       -3.05382194267195
H            5.69117917255891        1.17445149329773       -1.44059477764812
H            7.66960939868301        2.82191810936222        1.66524198978167
H           10.00321441367577        2.13045804071542        1.29562369077365
H           10.47582188359649       -0.11502726962998        0.35738179960893
H            8.61986416112088       -1.62022585850743       -0.19988280350980
H            7.23239654886109       -0.41265498029631       -2.26252630810958
H            7.49469677417128       -1.79513296922530       -4.26652741253924
H            6.66060529704090       -4.12031546609369       -4.29735005548841
H            5.56537390196996       -5.04810655494035       -2.28606949478548
H            5.30331706326309       -3.66823728662196       -0.27226148668409
H            5.94652569952208       -1.06753498071445        2.66572797612108
H            3.90256511848490       -1.23014889195723        4.02225299939239
H            1.71284820827288       -1.57652426693687        2.93671431305898
H            1.59433850917889       -1.81250211045551        0.47693910578801
H            3.62597696754750       -1.61767489765958       -0.87996147417677
H            5.97243034987541        1.90508965106581        3.25803450908950
H            3.68525609526991        2.47098622032999        3.95384162485073
H            1.27389375047974        2.58011287995912        3.44362130975055
H           -0.57239115010383        2.26829706290951        1.86805235040914
H           -0.35138411645087       -0.41302217565839        0.97861906242735
H           -1.14455541615645       -1.92480406835626        2.72757332845492
H           -3.48457610761452       -1.77579120808585        3.52999920299402
H           -5.03802855207847       -0.20451958837536        2.45626801437045
H           -5.57073917164692       -3.41095648408859       -1.54808845449610
H           -5.89975013577247       -5.69185300735630       -0.71414319747202
