112
 energy: -169.622285352874 gnorm: 0.000200818854 xtb: 6.7.1 (edcfbbe)
C           -4.32903482085449        2.01153325792010       -2.58944269665755
C           -5.48258587753822        2.29744642337411       -1.87948054645104
C           -6.13599881618401        1.29955142076269       -1.18349870416681
C           -5.63285648774785        0.00017819795224       -1.18162524756887
N           -6.29606703647347       -1.00807937168082       -0.46434018857891
C           -6.54577465691790       -2.24123187038952       -1.06336741622290
C           -6.68666655980040       -2.33486649024843       -2.44950669722038
C           -6.92757488240573       -3.55520377462705       -3.04846597361015
C           -7.04257287872516       -4.70432931894890       -2.28382969377341
C           -6.91303132401279       -4.61804773460288       -0.90760014315144
C           -6.66555138476141       -3.40345304017442       -0.29952904220647
C           -6.76042900155703       -0.72129627512064        0.82660251919573
C           -8.02671274335108       -1.13977769547205        1.22798479261301
C           -8.49862961484446       -0.84909238733171        2.49362288674995
C           -7.71545890861601       -0.12179186197095        3.37548431078528
C           -6.46174769476809        0.30953471362243        2.98312640487438
C           -5.95940056411203        0.01628118973686        1.71869774161539
C           -4.60928212043878        0.45572621930224        1.33510108442885
C           -4.31813097875608        1.84352799187590        1.19631756296464
C           -5.27192919498922        2.82652549815984        1.48262983118173
C           -4.97831425354011        4.17753760894167        1.35966485127964
C           -3.71604413280156        4.57275071277326        0.96352215317995
C           -2.75393200938966        3.61722486261461        0.66050644694907
C           -3.03592741307774        2.25002611105500        0.72705044734264
C           -2.04593791956399        1.26753127195646        0.40531611064038
C           -0.76242924313673        1.68471048595429       -0.12520373875955
C           -0.72932490065808        2.43006355717705       -1.31268403927000
C            0.45441031098991        2.74234244669339       -1.93083719337005
C            1.68537097463936        2.37765522944935       -1.36106174273241
C            2.92129573000703        2.66593325679173       -1.98752037243348
C            4.10269727113219        2.32557517478224       -1.40867217726959
C            4.14400124355132        1.69675714295454       -0.13510116693413
C            5.35236362727830        1.31691597846280        0.47847317193857
C            6.64917549444944        1.46668937682761       -0.20873142817728
C            7.18750355967532        2.71675056844362       -0.48605099563187
C            8.43221424061353        2.83968021801048       -1.07742533062981
C            9.15660086061376        1.70359938710385       -1.40122162985539
C            8.63249746562531        0.45138006331549       -1.14452901354952
C            7.37929803750470        0.31852629064431       -0.55231185140027
N            6.84555052421100       -0.96093172904134       -0.31243534125807
C            7.62470183672233       -1.92851327984044        0.31544409485622
C            8.62668195965241       -1.55706648609300        1.21423948894059
C            9.40422798637480       -2.51774576818870        1.82978197957315
C            9.19652064633179       -3.86243585557128        1.57052455585887
C            8.20316501687607       -4.23785610850031        0.68058599881700
C            7.42551919592802       -3.28506048104160        0.05306459898777
C            5.51609651287971       -1.21294944675245       -0.67583607223724
C            4.66548688991849       -1.94082285398103        0.15575572153661
C            3.34040189071806       -2.11493717520189       -0.18927583011357
C            2.84417419034572       -1.57979281402630       -1.36698039179990
C            3.69118460537768       -0.88171601537026       -2.21012204543219
C            5.01830417903513       -0.70073310449452       -1.87256566928301
C            5.33476483610327        0.72753176351122        1.73850859338106
C            4.14950578368344        0.47237139392765        2.39142039347431
C            2.92461822747092        0.77109112609122        1.78449146610361
C            1.68350324632539        0.47599985655864        2.40512961095224
C            0.50413467909112        0.75055118909125        1.79089686298781
C            0.46382468889896        1.35030670181535        0.50492091832949
C            1.68784782104195        1.70541900653245       -0.11374430360888
C            2.91996722579651        1.39440801632398        0.51320340547392
C           -2.33865743605988       -0.12492660286974        0.56752269811960
C           -1.44594831642486       -1.11959851249389        0.15963601423855
C           -1.73770838625107       -2.46812788943077        0.32278849057231
C           -2.92832693536018       -2.85090568700425        0.90986170732555
C           -3.85217533954639       -1.88501980412827        1.28292882207629
C           -3.60789941772637       -0.52334983477578        1.07450753046594
C           -4.47651762094033       -0.28550513239732       -1.90682046152309
C           -3.83092961596415        0.71788365167858       -2.60058949652870
H           -3.82530816378880        2.79366745246455       -3.13794665210028
H           -5.87810506981077        3.30223312105022       -1.86949188271264
H           -7.03878059774768        1.51816032314836       -0.63190766797521
H           -6.61352933573619       -1.44179078395351       -3.05251829283090
H           -7.03667745905245       -3.60659029576471       -4.12200628036834
H           -7.23453330576548       -5.65621312665652       -2.75505394822581
H           -7.00029280855105       -5.50703329605301       -0.29994486241163
H           -6.56550805102011       -3.35277017088507        0.77401764084162
H           -8.64135450704287       -1.69105158128870        0.53117310115503
H           -9.48269620618520       -1.18239483292068        2.78752385143484
H           -8.07899681720427        0.10659411344393        4.36598819047570
H           -5.83757983780543        0.86008756423705        3.67243058748850
H           -6.25703569672532        2.52850421341295        1.80787365193032
H           -5.73663493985420        4.91268589015491        1.58550825273339
H           -3.46916565317439        5.62139108108039        0.88802049783329
H           -1.76572648058653        3.94101018731314        0.37148162267531
H           -1.66918348513564        2.69304764121813       -1.77581041294376
H            0.45071263252758        3.26298830640764       -2.87812963747400
H            2.90550495943364        3.16246307255370       -2.94788579460044
H            5.03423964934991        2.53810045677391       -1.91162824004000
H            6.62820092337183        3.59850938893728       -0.20740117561613
H            8.83912380012258        3.81908570413840       -1.27934284808961
H           10.12889305776816        1.79302479796803       -1.86235878659781
H            9.18777916373378       -0.43911812857217       -1.40160082925988
H            8.78992470048339       -0.51056216057858        1.42768688817508
H           10.17373567061074       -2.21319054168157        2.52422684694177
H            9.80408709807329       -4.61070160090119        2.05632373687603
H            8.03813113168632       -5.28354524509148        0.46542882001494
H            6.66218227305243       -3.58263219026925       -0.65070170065507
H            5.04576621647195       -2.34406987851463        1.08267533543989
H            2.68504750516055       -2.65895800278498        0.47505199828916
H            1.80405790827347       -1.70773144185680       -1.62630174648723
H            3.31569795953991       -0.47016431476891       -3.13533052125817
H            5.67808412427761       -0.14951942942743       -2.52689601637366
H            6.27331043465864        0.46091329217196        2.20455876582779
H            4.15575184256315        0.01870465300069        3.37201161087381
H            1.69660163811157        0.02402913233251        3.38684945912590
H           -0.43052699156001        0.52419604803073        2.28251566139230
H           -0.50840844710614       -0.83543361887076       -0.29362414926968
H           -1.02458928231934       -3.21138671585756       -0.00202580362570
H           -3.15141115785595       -3.89557947380708        1.06793606606626
H           -4.77750641771592       -2.18614129522061        1.74903277662657
H           -4.08659371814740       -1.29279426668509       -1.90749993499745
H           -2.92749092749461        0.48977572214207       -3.14705129096217
