112
 energy: -169.683651093367 gnorm: 0.000032147227 xtb: 6.7.1 (edcfbbe)
C           -4.41640410103498        2.16116461621363       -2.53219321415212
C           -5.50040278810582        2.44570141105204       -1.72001917548164
C           -6.15037711106102        1.43075327905260       -1.04519715802728
C           -5.71114547659451        0.11458717534166       -1.16622340262315
N           -6.36220423228734       -0.90973751302799       -0.46232029541769
C           -6.69651652610513       -2.09902275351661       -1.10880195871428
C           -6.92837777711949       -2.11182484450159       -2.48559197819021
C           -7.24889736150223       -3.28908676856821       -3.13182385841449
C           -7.35609993021987       -4.47459878686309       -2.42383748756077
C           -7.13913039693230       -4.46799819924380       -1.05613160341595
C           -6.81095805964941       -3.29721798032172       -0.40191354358622
C           -6.72131247867025       -0.69353597639007        0.87631639584443
C           -7.97996101340465       -1.08370036422371        1.33122166512253
C           -8.34705317087492       -0.89173394393414        2.64852833767374
C           -7.46426568078901       -0.29634766982653        3.53484623821771
C           -6.21811635347694        0.10687819240621        3.09054367126660
C           -5.82598382056718       -0.08342507333694        1.77076818637310
C           -4.47977770263464        0.34340174342274        1.33086496394844
C           -4.15825030255282        1.70724456689715        1.27331340638624
C           -5.08044141350133        2.71500479193721        1.65867052646364
C           -4.75685367389901        4.03462513813112        1.58781823606275
C           -3.48498826389374        4.43232071720894        1.13064634715435
C           -2.57588252933905        3.49892520003980        0.74017147674280
C           -2.88090966688698        2.11343293782993        0.77858146807894
C           -1.96095228432198        1.15130378922156        0.34325901800041
C           -0.66491370445475        1.57107917940984       -0.22930945947933
C           -0.63682088539389        2.14594670257982       -1.49508217018841
C            0.55586883262783        2.49862686732936       -2.09235456825226
C            1.77123432861585        2.27998124915205       -1.44169938236921
C            3.02208881437836        2.59308735032499       -2.04546177718883
C            4.19075263365540        2.32902816884455       -1.41812935300054
C            4.21721456096366        1.75060122312785       -0.11501974197775
C            5.41449023552060        1.39104773692582        0.52213312648881
C            6.71700625238257        1.47527101582702       -0.16967786727304
C            7.32155419314060        2.69271040798275       -0.45016322972972
C            8.57210735883269        2.74448808234437       -1.04074529179165
C            9.23324895670081        1.56896413702451       -1.35783393375381
C            8.64058190855905        0.34802575462230       -1.09843356584946
C            7.38098244628711        0.28672132835904       -0.50858183743768
N            6.77312143533431       -0.95809515163622       -0.26194521611569
C            7.48675250457819       -1.96940993044144        0.37397168124549
C            8.51233875470709       -1.65891776220727        1.26882370080605
C            9.22456142121134       -2.66481154007404        1.89139646549938
C            8.92665064895024       -3.99461933620211        1.64407167690706
C            7.90866827654162       -4.30950224938335        0.75871143611420
C            7.19637995714306       -3.31170082207692        0.12372376393381
C            5.44030447966374       -1.14210802369003       -0.65596423658176
C            4.52456571523514       -1.78751156459017        0.17428411470570
C            3.20336456280744       -1.90375378936641       -0.20858998072560
C            2.77695499487863       -1.39408453733721       -1.42439928133750
C            3.68728275876383       -0.77613900711646       -2.26372695060108
C            5.01020786778281       -0.65001240480772       -1.88649494055922
C            5.38423886767820        0.86325272367884        1.80803530309725
C            4.19058597530955        0.64790671095053        2.46345899031959
C            2.97632254615641        0.91380313436974        1.83023977954040
C            1.72404430863360        0.62441540775377        2.44374847564699
C            0.55699092390949        0.83673897194765        1.79457424606513
C            0.53509737334473        1.37272919202340        0.47289059166678
C            1.76401775763796        1.71687308887333       -0.14242907877863
C            2.98681690007649        1.47323474370738        0.52959174783572
C           -2.27440290216840       -0.21299550611426        0.41945092075646
C           -1.37658165901195       -1.21263459962589       -0.03785963708495
C           -1.68847801577666       -2.53427783816948        0.04848472381926
C           -2.91029631369141       -2.93919594943691        0.62171935329451
C           -3.80154238627624       -2.00984368521582        1.06099063704086
C           -3.53722076811656       -0.62106490162104        0.94610531558358
C           -4.62320723215500       -0.16852753227499       -1.99019126819577
C           -3.98470132021816        0.85087663908341       -2.66694066765210
H           -3.91475341704865        2.95789118501919       -3.06139676115948
H           -5.84506450377961        3.46357561038564       -1.61351414748390
H           -7.00109971955018        1.64918754971986       -0.41627012753935
H           -6.86181318090086       -1.18990846644946       -3.04434688792541
H           -7.42630381311190       -3.27757677397749       -4.19741316148270
H           -7.60970919016009       -5.39264562752090       -2.93166238080813
H           -7.22044854843692       -5.38548175525102       -0.49147349540246
H           -6.64482349491868       -3.31007576142210        0.66464605508919
H           -8.66862959529882       -1.53978820428256        0.63480146796198
H           -9.32647948373738       -1.20120734780790        2.98166554646577
H           -7.74491795980977       -0.14686080645699        4.56642803930545
H           -5.51849653144534        0.56180035585593        3.77739051327668
H           -6.05455345143841        2.41582155533395        2.01566592132069
H           -5.47154072168166        4.78816138697940        1.88554953729019
H           -3.24013221476934        5.48381527010472        1.09366497671280
H           -1.59805405213072        3.79983600009166        0.39386905630087
H           -1.57231827939758        2.30174664764407       -2.01209390391389
H            0.55734986904357        2.93767887822885       -3.08005745882163
H            3.01428235113655        3.03475948041351       -3.03226843315536
H            5.13165465868397        2.55198773611274       -1.89919815893580
H            6.80999749760358        3.60486771895861       -0.17734982817119
H            9.03246325548699        3.69911406594511       -1.24647287115562
H           10.21031175240000        1.60303568329562       -1.81638045334688
H            9.14696314709004       -0.57261719027510       -1.35018409780985
H            8.74639842705703       -0.62405535550161        1.47286647387760
H           10.01436173580429       -2.40697788675891        2.58202920141811
H            9.48345126139281       -4.77807449809300        2.13524251943290
H            7.67267512937026       -5.34339066115354        0.55247481690749
H            6.41361132185546       -3.56369923757475       -0.57652079288519
H            4.85371706571428       -2.17493658583451        1.12716406256642
H            2.49694119011943       -2.38301240959724        0.45344179506301
H            1.74139885623753       -1.48010958241918       -1.71744759109242
H            3.36508291167479       -0.38576993959347       -3.21777734600074
H            5.72025481255338       -0.16084267256915       -2.53762517512812
H            6.31698892894651        0.60722877547194        2.29104937625930
H            4.18770868408154        0.23934558803466        3.46390364661085
H            1.73060330032509        0.21768150405518        3.44526766182341
H           -0.38633902717517        0.60564165268644        2.26756089212433
H           -0.43162716099300       -0.90193625127010       -0.45799094061899
H           -0.99748144557748       -3.28355587431292       -0.30981820878816
H           -3.13168758813334       -3.99273677136589        0.71035755700591
H           -4.72701680783594       -2.31964060866299        1.52125495383839
H           -4.27981011680572       -1.18848475090400       -2.08338485196599
H           -3.13872956365751        0.61903936695821       -3.29777458291682
