  53
        -79.39489540
 C          2.3533067280        3.8353157241       -0.8704969939
 C          2.6090283845        3.5383018108        0.4584348088
 C          2.3125995909        2.2826471422        0.9514988933
 C          1.7721125081        1.3058105432        0.1187490175
 P          1.4018868328       -0.3067703126        0.9067912343
 C          3.0420719695       -1.1209947490        0.7556506194
 C          3.0921281950       -2.4584125516        1.1433886418
 C          4.2774636409       -3.1639634781        1.0780915001
 C          5.4318707015       -2.5352273588        0.6381669106
 C          5.3921771084       -1.2017962339        0.2693032056
 C          4.2045906994       -0.4925573730        0.3293382734
 C          0.5662739671       -1.1805434503       -0.4464973983
 C          1.0640254815       -1.8464716819       -1.5200202486
 S         -0.1908191310       -2.5291105533       -2.4859859838
 C         -1.4033321653       -1.9042385704       -1.4255923435
 C         -0.8604316640       -1.2168422619       -0.3895661014
 P         -1.5892514707       -0.3864837260        1.0545071176
 C         -1.4732581893        1.3314580861        0.4211909605
 C         -1.7984008108        1.6622452991       -0.8898444438
 C         -1.6689118831        2.9671520045       -1.3246873712
 C         -1.2133467434        3.9485225361       -0.4583486245
 C         -0.8917614768        3.6246995537        0.8480009791
 C         -1.0198391839        2.3188464010        1.2863191098
 C         -3.3621730510       -0.7396049197        0.7443425057
 C         -4.3272096604        0.2519169561        0.6155315321
 C         -5.6580609747       -0.0906630460        0.4515492886
 C         -6.0403215324       -1.4208616301        0.4303821465
 C         -5.0874198104       -2.4143847623        0.5914119153
 C         -3.7588891368       -2.0752607174        0.7593414879
 C          1.5157690724        1.6105804553       -1.2108512989
 C          1.8061390955        2.8718429607       -1.6998832745
 H          2.5780448326        4.8181339427       -1.2582259401
 H          3.0342285408        4.2886147647        1.1093239159
 H          2.5001197068        2.0431814499        1.9902445464
 H          2.1871578856       -2.9396964884        1.4905843107
 H          4.3054188727       -4.2029704622        1.3726596249
 H          6.3609673451       -3.0837744053        0.5866239783
 H          6.2915479261       -0.7081229453       -0.0703091060
 H          4.1843436183        0.5476710108        0.0376780752
 H          2.0880349338       -1.9929749696       -1.8046020497
 H         -2.4354153606       -2.1034550780       -1.6394140629
 H         -2.1541600077        0.8948955289       -1.5645231518
 H         -1.9215451914        3.2217590407       -2.3441280125
 H         -1.1085592741        4.9663210393       -0.8044719915
 H         -0.5355027892        4.3887774693        1.5232822441
 H         -0.7648522486        2.0523770518        2.3029290135
 H         -4.0379372484        1.2932239869        0.6378259058
 H         -6.4005307233        0.6867378032        0.3415202344
 H         -7.0795909379       -1.6840840326        0.2985933780
 H         -5.3836068688       -3.4536375785        0.5913968628
 H         -3.0125841255       -2.8464181412        0.8994574677
 H          1.0880166306        0.8655544084       -1.8662239915
 H          1.6035350666        3.1025957496       -2.7358176727
  53
        -79.39478646
 C          1.9632491723        3.6304698938       -0.5028953957
 C          1.5826472888        3.3764761324        0.8030098699
 C          1.4613016020        2.0709910296        1.2446159095
 C          1.7233281035        1.0135679759        0.3830420108
 P          1.5010547974       -0.6948905978        1.0140322207
 C          3.1584108879       -1.4034154533        0.6773810440
 C          3.2681930164       -2.7925068233        0.6711698986
 C          4.4961606655       -3.3982525510        0.4890548529
 C          5.6343398715       -2.6224462275        0.3353361147
 C          5.5376109836       -1.2421180206        0.3770550592
 C          4.3079936840       -0.6324263820        0.5550063513
 C          0.5963440878       -1.3470550613       -0.4221935068
 C          0.9682355145       -2.1175034611       -1.4749816258
 S         -0.3655150960       -2.4654376708       -2.5169213369
 C         -1.4362412975       -1.5523602761       -1.5201649314
 C         -0.7926824038       -1.0163179706       -0.4516513011
 P         -1.4041625541       -0.0104944888        0.9296115003
 C         -1.4948824117        1.6484342214        0.1578199393
 C         -1.1559540933        1.9281259787       -1.1589673652
 C         -1.2129159172        3.2292270204       -1.6262835739
 C         -1.6067218465        4.2576231157       -0.7878721782
 C         -1.9448904860        3.9851364464        0.5280117374
 C         -1.8819232392        2.6886559428        0.9993778791
 C         -3.1689263831       -0.5130983437        0.8282666211
 C         -4.1727534312        0.2235851279        0.2133279751
 C         -5.4670709503       -0.2663367414        0.1804010153
 C         -5.7699133646       -1.4862010484        0.7606881836
 C         -4.7736629371       -2.2212054547        1.3830485685
 C         -3.4816094371       -1.7338644891        1.4206098477
 C          2.1091765288        1.2737823918       -0.9275353411
 C          2.2291491496        2.5785257991       -1.3655489142
 H          2.0521172013        4.6488248859       -0.8519016630
 H          1.3737889701        4.1956918745        1.4753555487
 H          1.1577358807        1.8603981945        2.2609722466
 H          2.3781213083       -3.3932705582        0.8067101392
 H          4.5693095418       -4.4763053328        0.4723330210
 H          6.5954684211       -3.0942611395        0.1928731807
 H          6.4255104007       -0.6350349762        0.2726015988
 H          4.2412286009        0.4459555644        0.5936477892
 H          1.9333942185       -2.5216658830       -1.7110019862
 H         -2.4731979907       -1.4813490480       -1.7858798087
 H         -0.8449571596        1.1324998949       -1.8207116561
 H         -0.9470105031        3.4402942804       -2.6521182596
 H         -1.6477825481        5.2715375296       -1.1581416564
 H         -2.2513398956        4.7857281165        1.1857030216
 H         -2.1359100646        2.4660100667        2.0276658549
 H         -3.9446068011        1.1763057957       -0.2417642859
 H         -6.2433695491        0.3081716258       -0.3034351893
 H         -6.7818284864       -1.8629849429        0.7311119225
 H         -5.0074005037       -3.1711385763        1.8417064577
 H         -2.6968411628       -2.2972395176        1.9085738772
 H          2.3152211254        0.4511292229       -1.5994702234
 H          2.5275039062        2.7781706701       -2.3849017587
  53
        -79.39474033
 C          1.8971904324        3.6598051458       -0.3256642549
 C          1.6930774061        3.3465552177        1.0069066156
 C          1.5843761859        2.0235482771        1.3953929668
 C          1.6865210749        1.0060910061        0.4546978266
 P          1.4981229492       -0.7207427028        1.0426259001
 C          3.1704501890       -1.3864567913        0.6881474469
 C          3.3223121450       -2.7702292354        0.7516443130
 C          4.5593122965       -3.3503025940        0.5496895196
 C          5.6653089140       -2.5516115037        0.3044418819
 C          5.5271103218       -1.1746246561        0.2712168223
 C          4.2877118861       -0.5907552374        0.4682115828
 C          0.6108494070       -1.3821080567       -0.3987506041
 C          0.9992362911       -2.1753161255       -1.4286741411
 S         -0.3188089940       -2.5511739312       -2.4799815144
 C         -1.4052596240       -1.6196386924       -1.5177020250
 C         -0.7795309635       -1.0595835935       -0.4504501033
 P         -1.4041807307       -0.0154839417        0.8962829730
 C         -1.4713047476        1.6225873037        0.0722919572
 C         -1.3745420392        1.8151519303       -1.2991121307
 C         -1.4337624223        3.0933758207       -1.8247755382
 C         -1.5887172201        4.1866091262       -0.9897329509
 C         -1.6817938546        4.0014636351        0.3797579352
 C         -1.6169652008        2.7262660755        0.9078688436
 C         -3.1760469157       -0.4863842531        0.7996358175
 C         -4.2095071988        0.4059312763        0.5457310360
 C         -5.5211097878       -0.0372223308        0.5390741015
 C         -5.8128363646       -1.3659785174        0.7938245437
 C         -4.7867480368       -2.2575199906        1.0658918893
 C         -3.4776451298       -1.8182966184        1.0773323802
 C          1.9001029977        1.3256295209       -0.8816573552
 C          2.0026593288        2.6485639295       -1.2672763406
 H          1.9724437581        4.6924013556       -0.6335393717
 H          1.6104462996        4.1338674448        1.7420132317
 H          1.4136424554        1.7670647585        2.4320591508
 H          2.4564090329       -3.3867881532        0.9563186807
 H          4.6651527441       -4.4250462701        0.5890440736
 H          6.6343056283       -3.0027438156        0.1485286191
 H          6.3900885093       -0.5494226237        0.0921689103
 H          4.1895395909        0.4855919728        0.4476735899
 H          1.9698100049       -2.5793400051       -1.6414998797
 H         -2.4397742294       -1.5619514066       -1.7968287706
 H         -1.2524486920        0.9678435260       -1.9586020022
 H         -1.3588755108        3.2358384946       -2.8934078728
 H         -1.6338844307        5.1824945798       -1.4057056131
 H         -1.7998047580        4.8526803029        1.0346461856
 H         -1.6813691428        2.5723010589        1.9770050242
 H         -3.9914245937        1.4454135568        0.3463730025
 H         -6.3191778956        0.6612508731        0.3323975607
 H         -6.8375663406       -1.7071671449        0.7846709929
 H         -5.0106652575       -3.2942545315        1.2724569421
 H         -2.6717587360       -2.5074954088        1.2951021963
 H          1.9872089820        0.5365465959       -1.6163519668
 H          2.1653504762        2.8940627451       -2.3070382634
  53
        -79.39236921
 C          4.9356206868        2.7239455764       -1.8154506914
 C          3.6304983699        3.0218528903       -2.1747708397
 C          2.5790716911        2.3884881961       -1.5411817057
 C          2.8204006338        1.4326900666       -0.5567167016
 P          1.3600429962        0.7065337145        0.2806663170
 C          2.0725208423       -0.8442992849        0.9491654317
 C          2.7295789426       -1.7647078204        0.1401189687
 C          3.2271335043       -2.9324276135        0.6872256893
 C          3.0709555959       -3.1900799694        2.0403195417
 C          2.4174401328       -2.2759372417        2.8491603243
 C          1.9180770193       -1.1062273163        2.3045520508
 C          0.5296649845       -0.0395958883       -1.1532313453
 C          0.8568466480       -0.2187549562       -2.4554280793
 S         -0.3777816383       -1.0799546687       -3.3065144554
 C         -1.3490421501       -1.1870892309       -1.8790370530
 C         -0.7482166832       -0.5861117383       -0.8242272118
 P         -1.2113157916       -0.2822991843        0.9065781305
 C         -1.9112876534        1.3922718313        0.6536641524
 C         -2.8057407393        1.6719769492       -0.3734675969
 C         -3.2896066517        2.9565552598       -0.5358883723
 C         -2.8838602310        3.9677833672        0.3211077332
 C         -1.9925839160        3.6932479463        1.3445424838
 C         -1.5061320950        2.4086417534        1.5096677218
 C         -2.7385935311       -1.2905537670        1.0022029147
 C         -3.9555516660       -0.7851160393        1.4442292439
 C         -5.0513343095       -1.6212161265        1.5664293411
 C         -4.9390559993       -2.9681930802        1.2664358070
 C         -3.7197747611       -3.4848289119        0.8569237374
 C         -2.6232630648       -2.6533363925        0.7368482335
 C          4.1300735745        1.1634497590       -0.1777716334
 C          5.1811951257        1.8016433682       -0.8125079367
 H          5.7590305038        3.2169483249       -2.3111543106
 H          3.4347371004        3.7518560200       -2.9471371384
 H          1.5567236852        2.6246578054       -1.8080345791
 H          2.8501961923       -1.5617751538       -0.9156901782
 H          3.7369808828       -3.6468113615        0.0566575460
 H          3.4579872307       -4.1061230799        2.4624445435
 H          2.2939570453       -2.4765634120        3.9036099874
 H          1.4001189673       -0.3884415994        2.9255675328
 H          1.7352472164        0.0953285505       -2.9852978943
 H         -2.2937549448       -1.6931157158       -1.9267504295
 H         -3.1219042499        0.8815263979       -1.0408565369
 H         -3.9847435761        3.1718078685       -1.3348668630
 H         -3.2624385538        4.9708291896        0.1882329288
 H         -1.6746319081        4.4813083635        2.0115433133
 H         -0.8048943654        2.1839216491        2.3014698692
 H         -4.0467359372        0.2651014379        1.6849484087
 H         -5.9973426232       -1.2187643272        1.8993584875
 H         -5.7975264051       -3.6171645498        1.3595142343
 H         -3.6250738354       -4.5384869874        0.6362587320
 H         -1.6644548309       -3.0527319592        0.4312377284
 H          4.3273978780        0.4484258356        0.6088954335
 H          6.1974961914        1.5789284085       -0.5205065492
  53
        -79.39210664
 C          4.9194508679        2.7979316825       -1.8568395526
 C          3.6173584409        3.0268639911       -2.2716509489
 C          2.5702264304        2.3708943013       -1.6536879112
 C          2.8133363151        1.4597645927       -0.6286958242
 P          1.3731537935        0.7003425738        0.2128627113
 C          2.1283606446       -0.8449760835        0.8457076794
 C          1.9790574978       -1.1449657646        2.1936745084
 C          2.5197708267       -2.3089248854        2.7108547545
 C          3.2091205096       -3.1779637332        1.8823419238
 C          3.3589426407       -2.8821183663        0.5362647087
 C          2.8204210866       -1.7203666102        0.0163567018
 C          0.5213019287       -0.0403749596       -1.2129293608
 C          0.8294866476       -0.2454983301       -2.5157338429
 S         -0.4436935830       -1.0756393645       -3.3439414440
 C         -1.4020270330       -1.1353016271       -1.9062878077
 C         -0.7745253060       -0.5340181536       -0.8670339973
 P         -1.1875842523       -0.3020055823        0.8845491966
 C         -1.9314366428        1.3673737491        0.8467923647
 C         -1.5999693036        2.3323841844       -0.0955206816
 C         -2.1392300531        3.6035696717       -0.0077840002
 C         -3.0047121804        3.9250544161        1.0235235571
 C         -3.3270677294        2.9714983050        1.9762353193
 C         -2.7874803520        1.7026199377        1.8934158686
 C         -2.7180782515       -1.3206437351        0.9287531633
 C         -3.9110719563       -0.9306373853        0.3295411847
 C         -5.0083288294       -1.7710184254        0.3635484028
 C         -4.9251823525       -3.0037196031        0.9920223727
 C         -3.7398126574       -3.3973820308        1.5892042010
 C         -2.6409427842       -2.5571902489        1.5585323924
 C          4.1195843854        1.2602530259       -0.1958766623
 C          5.1660505275        1.9205180629       -0.8143812203
 H          5.7390690279        3.3092449579       -2.3400568356
 H          3.4196143946        3.7213532385       -3.0756948487
 H          1.5518721173        2.5584585843       -1.9681931884
 H          1.4351442333       -0.4597728065        2.8295106247
 H          2.4027605955       -2.5393697881        3.7599727912
 H          3.6302551965       -4.0883284331        2.2836612801
 H          3.8969792664       -3.5612420626       -0.1095291757
 H          2.9372025182       -1.4865450701       -1.0333024866
 H          1.7116472678        0.0320794458       -3.0595293247
 H         -2.3630586661       -1.6103246927       -1.9367874419
 H         -0.9257183293        2.0910821508       -0.9058371666
 H         -1.8811278193        4.3470126747       -0.7485038320
 H         -3.4250442855        4.9179524632        1.0876682667
 H         -3.9970022988        3.2206319683        2.7866045490
 H         -3.0317272789        0.9554669873        2.6377349918
 H         -3.9777702883        0.0314281091       -0.1599961664
 H         -5.9336171994       -1.4649597783       -0.1036604210
 H         -5.7859702535       -3.6561729054        1.0157194005
 H         -3.6733424482       -4.3576506622        2.0799639331
 H         -1.7092785074       -2.8537388062        2.0226144290
 H          4.3165658840        0.5807335227        0.6218778045
 H          6.1792440583        1.7513724235       -0.4787131250
  53
        -79.39186489
 C          4.0113134456        3.3290982702        0.5076057852
 C          4.1371544762        2.4180182481        1.5445100246
 C          3.2835633544        1.3345529226        1.6198821606
 C          2.3061832678        1.1397920137        0.6463974049
 P          1.1515170110       -0.2574489829        0.8661282031
 C          2.3248080382       -1.6614452478        1.0296536568
 C          1.8406134518       -2.7897527930        1.6829415938
 C          2.6288949991       -3.9191752586        1.8076917592
 C          3.9106201149       -3.9256614597        1.2835756196
 C          4.3985693408       -2.8036056369        0.6329932622
 C          3.6111992699       -1.6741402398        0.5027500046
 C          0.6593376556       -0.5431094202       -0.8582316750
 C          1.1830912461       -1.2800828360       -1.8671648595
 S          0.2299855468       -1.1545945369       -3.3032328916
 C         -0.9003474474       -0.1065840448       -2.5159811280
 C         -0.5526669767        0.1175972537       -1.2261959803
 P         -1.2741463725        1.0565108886        0.1542776965
 C         -2.7081674387        1.8104609246       -0.7052615628
 C         -4.0189377136        1.6607452024       -0.2678018865
 C         -5.0493603639        2.3078949557       -0.9266310487
 C         -4.7815264068        3.1206078813       -2.0150395092
 C         -3.4735412806        3.3003560165       -2.4364336761
 C         -2.4426467459        2.6585012290       -1.7780425107
 C         -2.0808146562       -0.3680065024        0.9822364847
 C         -1.9429042482       -0.4876517069        2.3597155406
 C         -2.5011378838       -1.5647075542        3.0245665570
 C         -3.1966044785       -2.5293655545        2.3148757377
 C         -3.3388469597       -2.4119747044        0.9412160280
 C         -2.7838430548       -1.3357099243        0.2740449127
 C          2.1685022136        2.0703685904       -0.3761244262
 C          3.0227233231        3.1564357164       -0.4460386246
 H          4.6797818247        4.1753392482        0.4471303722
 H          4.9008401416        2.5558059410        2.2963851865
 H          3.3732795364        0.6231458669        2.4307748370
 H          0.8372447893       -2.7710050247        2.0893096589
 H          2.2462525933       -4.7930853559        2.3147887399
 H          4.5311105262       -4.8044397715        1.3818661092
 H          5.3985228244       -2.8102361100        0.2230158951
 H          3.9951933324       -0.7998159281       -0.0043406885
 H          2.0647675554       -1.8906031683       -1.8749186718
 H         -1.7402137152        0.2668111355       -3.0691676245
 H         -4.2336315429        1.0315344668        0.5847998134
 H         -6.0670871782        2.1777015779       -0.5874390523
 H         -5.5891991050        3.6202610001       -2.5295611544
 H         -3.2593008693        3.9451112691       -3.2767984593
 H         -1.4183206282        2.8064971792       -2.0948213474
 H         -1.3898323756        0.2675729991        2.9016082515
 H         -2.3894642808       -1.6552816428        4.0954906441
 H         -3.6274018598       -3.3751946480        2.8308408634
 H         -3.8818341813       -3.1648812284        0.3879131763
 H         -2.8958294841       -1.2425284507       -0.7978438670
 H          1.3951494572        1.9451144365       -1.1213455902
 H          2.9153700646        3.8717496751       -1.2488419397
  53
        -79.39162797
 C          4.7628093474        2.8984442836       -1.9228974513
 C          3.4368724934        3.1142073244       -2.2640738349
 C          2.4359614575        2.4185106574       -1.6145571964
 C          2.7491459313        1.4815156109       -0.6322660165
 P          1.3512692851        0.6794853284        0.2383973410
 C          2.1506368519       -0.8433486070        0.8716401130
 C          2.0129828244       -1.1425602053        2.2211729893
 C          2.5790324694       -2.2940405313        2.7394915614
 C          3.2828693880       -3.1513432873        1.9108385895
 C          3.4214100623       -2.8564528460        0.5632496150
 C          2.8566286210       -1.7077472182        0.0420238295
 C          0.5093698582       -0.0929477128       -1.1756681957
 C          0.8247473059       -0.3021100775       -2.4761681964
 S         -0.4251601185       -1.1717357560       -3.2996593157
 C         -1.3870792406       -1.2377425550       -1.8642079464
 C         -0.7742358172       -0.6156139815       -0.8283637766
 P         -1.2153131979       -0.3530414017        0.9106170001
 C         -1.8612192382        1.3564283801        0.8453196411
 C         -1.8135257563        2.1735104458       -0.2766141014
 C         -2.2715685613        3.4774448342       -0.2037820514
 C         -2.7746914291        3.9768272397        0.9852724623
 C         -2.8169168928        3.1692618443        2.1107820580
 C         -2.3555058911        1.8688171839        2.0425401978
 C         -2.7806191732       -1.3163544160        0.9216027827
 C         -4.0507989406       -0.7708142739        0.7877621833
 C         -5.1610614456       -1.5973380818        0.7904233653
 C         -5.0141279986       -2.9674469912        0.9260914397
 C         -3.7494174513       -3.5166387702        1.0657602748
 C         -2.6397003580       -2.6935675434        1.0707388604
 C          4.0785327502        1.2935135992       -0.2729265184
 C          5.0790748320        1.9944444817       -0.9229886448
 H          5.5469512769        3.4414707628       -2.4297968907
 H          3.1853737372        3.8310673001       -3.0326206754
 H          1.3979442629        2.5918687370       -1.8676437927
 H          1.4580038735       -0.4668291240        2.8574221214
 H          2.4704283777       -2.5239805262        3.7895412434
 H          3.7233081511       -4.0521058647        2.3131040498
 H          3.9704516371       -3.5264848347       -0.0828933815
 H          2.9630579831       -1.4757625902       -1.0091542686
 H          1.7003817907       -0.0064392144       -3.0209772513
 H         -2.3391837916       -1.7306968292       -1.8913197920
 H         -1.4293230948        1.7923168705       -1.2121140052
 H         -2.2358259977        4.1066577747       -1.0817512310
 H         -3.1305801148        4.9954132630        1.0362931235
 H         -3.2056624751        3.5570200159        3.0413262479
 H         -2.3805257077        1.2312834950        2.9170964030
 H         -4.1736315454        0.2974028995        0.6790703938
 H         -6.1471137171       -1.1682467176        0.6831423802
 H         -5.8845322227       -3.6071672428        0.9240416705
 H         -3.6316103257       -4.5852838986        1.1728957312
 H         -1.6465435090       -3.1099786954        1.1838774336
 H          4.3305201127        0.5937771399        0.5119754820
 H          6.1114159349        1.8338929514       -0.6470840444
  53
        -79.39142904
 C          3.8017983322        3.3980485800       -1.8104738133
 C          2.5979435365        3.7197563328       -1.2060297891
 C          1.9017314444        2.7552360432       -0.5012571763
 C          2.4006534047        1.4601873948       -0.3996690990
 P          1.3389817394        0.2643232605        0.5031599570
 C          2.5322174202       -1.0628571150        0.8872606738
 C          3.6721131297       -0.7299581636        1.6160731169
 C          4.5657228114       -1.7111545782        1.9992723162
 C          4.3192274505       -3.0371590832        1.6788151117
 C          3.1708806354       -3.3774457247        0.9844525208
 C          2.2757006853       -2.3971267508        0.5944338885
 C          0.5082821991       -0.4530090663       -0.9463979368
 C          0.9088583326       -0.6481701892       -2.2267121545
 S         -0.3318830994       -1.3851071727       -3.1744778007
 C         -1.4106930529       -1.4111149719       -1.8216745701
 C         -0.8355941829       -0.8776577159       -0.7166987550
 P         -1.3989364852       -0.5693416227        0.9850223218
 C         -1.6786371479        1.2350199623        0.7939282004
 C         -2.2365414529        1.7846801223       -0.3546364636
 C         -2.3896465009        3.1548437094       -0.4608589906
 C         -1.9905404536        3.9836129377        0.5758065727
 C         -1.4393338645        3.4398913594        1.7245538854
 C         -1.2811987471        2.0697299093        1.8319322181
 C         -3.1185271911       -1.1926512062        0.8504590291
 C         -4.2351754733       -0.4092994463        1.1164741186
 C         -5.5020327793       -0.9630424017        1.0580691266
 C         -5.6657438939       -2.3025790858        0.7491968516
 C         -4.5547982117       -3.0969501640        0.5130635532
 C         -3.2888693128       -2.5476511267        0.5746619593
 C          3.6078529351        1.1414818291       -1.0102785580
 C          4.3034826778        2.1104958473       -1.7107111577
 H          4.3503210978        4.1499616324       -2.3587732995
 H          2.2040586225        4.7229292078       -1.2817469794
 H          0.9614279280        2.9973554538       -0.0229612068
 H          3.8547284034        0.3064647530        1.8692075189
 H          5.4545266851       -1.4446611002        2.5525820149
 H          5.0185179731       -3.8045011485        1.9774192638
 H          2.9700011463       -4.4124386505        0.7462687984
 H          1.3754724571       -2.6684738948        0.0606028147
 H          1.8496702189       -0.4128203137       -2.6845805546
 H         -2.3952311365       -1.8178134397       -1.9474141276
 H         -2.5520124640        1.1383607451       -1.1625182342
 H         -2.8197653052        3.5790947291       -1.3569028806
 H         -2.1082615626        5.0538660753        0.4864286385
 H         -1.1270767704        4.0849612750        2.5332067134
 H         -0.8415367571        1.6343987694        2.7189713662
 H         -4.1141572940        0.6359608141        1.3647877239
 H         -6.3660269554       -0.3451360068        1.2584522457
 H         -6.6565906118       -2.7298019144        0.7005845773
 H         -4.6782144922       -4.1462564142        0.2859386481
 H         -2.4163635780       -3.1656204001        0.4059820365
 H          4.0041124981        0.1383636661       -0.9349814375
 H          5.2419053741        1.8588244674       -2.1839472496
  53
        -79.39132197
 C          3.5796045060        3.3553722391       -2.0242907582
 C          2.3992134227        3.6590428953       -1.3670837027
 C          1.7779148339        2.7008521268       -0.5874015623
 C          2.3288836202        1.4295591682       -0.4619469330
 P          1.3594823831        0.2221487824        0.5275982106
 C          2.6350974684       -1.0357247578        0.8871049782
 C          2.4566338648       -2.3839318995        0.6010825893
 C          3.4224722647       -3.3046157476        0.9674362717
 C          4.5637247857       -2.8913476731        1.6331895641
 C          4.7335384425       -1.5519047456        1.9474091746
 C          3.7704252828       -0.6302099585        1.5858794530
 C          0.4975506305       -0.5653554746       -0.8676191834
 C          0.8961305011       -0.8487196122       -2.1326504334
 S         -0.3589284285       -1.6088062714       -3.0400206024
 C         -1.4422983369       -1.5227792316       -1.6945702785
 C         -0.8572000478       -0.9400153411       -0.6196052391
 P         -1.4347519337       -0.5392496812        1.0578319169
 C         -1.6553904573        1.2636146244        0.7922509198
 C         -2.1657795891        1.7896590103       -0.3891177916
 C         -2.2801003724        3.1591837288       -0.5434292464
 C         -1.8879770953        4.0112354953        0.4769033060
 C         -1.3833819090        3.4915067708        1.6577120121
 C         -1.2654105262        2.1218806402        1.8137182850
 C         -3.1687072514       -1.1221095715        0.9134459835
 C         -4.2740675700       -0.2951322538        1.0714055808
 C         -5.5516547738       -0.8231751092        1.0044793681
 C         -5.7381190780       -2.1787717691        0.7951093492
 C         -4.6397110201       -3.0142760246        0.6665224910
 C         -3.3635973662       -2.4903535982        0.7362796704
 C          3.5152500792        1.1303085272       -1.1216023389
 C          4.1353138537        2.0926434362       -1.8979425178
 H          4.0679055860        4.1017402886       -2.6336935823
 H          1.9636608453        4.6433248967       -1.4608249074
 H          0.8567261321        2.9312796870       -0.0692938245
 H          1.5632841527       -2.7128067949        0.0890516726
 H          3.2821168313       -4.3501733154        0.7328952711
 H          5.3174504106       -3.6122541657        1.9140240425
 H          5.6173398404       -1.2284619040        2.4781582610
 H          3.8935290030        0.4161905465        1.8334095427
 H          1.8457618047       -0.6686678575       -2.5973713183
 H         -2.4364815903       -1.9113049813       -1.7992985844
 H         -2.4762029300        1.1255770544       -1.1845469539
 H         -2.6743061562        3.5645872386       -1.4643301711
 H         -1.9740184025        5.0806869351        0.3497939114
 H         -1.0758657348        4.1545651739        2.4532418654
 H         -0.8619998704        1.7049966612        2.7263569463
 H         -4.1371634865        0.7635528781        1.2418034315
 H         -6.4063633781       -0.1716815954        1.1178840222
 H         -6.7370942955       -2.5860138754        0.7407391429
 H         -4.7812121946       -4.0751708773        0.5171123136
 H         -2.5013081906       -3.1390762576        0.6502709394
 H          3.9554768080        0.1474920400       -1.0253328996
 H          5.0568796039        1.8548636039       -2.4099235165
  53
        -79.39116343
 C          3.4489493430        3.4737636366       -1.8029291651
 C          2.3005717717        3.7139430313       -1.0678148822
 C          1.7182809749        2.6898100330       -0.3435579108
 C          2.2752344385        1.4154096364       -0.3531935418
 P          1.3681431329        0.1176561359        0.5802829012
 C          2.7047910054       -1.0978856962        0.8572432757
 C          3.8617279679       -0.6694532072        1.5046743807
 C          4.8671117854       -1.5679900439        1.8047088928
 C          4.7190912408       -2.9077320684        1.4819338989
 C          3.5573412913       -3.3452328031        0.8685421514
 C          2.5498025633       -2.4476918191        0.5630206560
 C          0.5160672136       -0.6363123214       -0.8409779626
 C          0.9393080675       -0.9277386484       -2.0963554690
 S         -0.3163915951       -1.6344237679       -3.0449319880
 C         -1.4337797021       -1.5152523952       -1.7310539938
 C         -0.8584500212       -0.9623972278       -0.6347866582
 P         -1.4768816113       -0.5695450741        1.0292034068
 C         -1.6385134622        1.2448636096        0.8069097780
 C         -2.0147789102        1.8266634193       -0.3987041519
 C         -2.1096534428        3.2022412644       -0.5024779608
 C         -1.8344249001        4.0056763757        0.5929708660
 C         -1.4617192699        3.4308998958        1.7970316660
 C         -1.3605077170        2.0548702865        1.9021806389
 C         -3.2255479567       -1.0851404724        0.8171358210
 C         -4.3034608881       -0.2155626987        0.9288640562
 C         -5.5968418507       -0.6935771614        0.8105294900
 C         -5.8272876068       -2.0412952800        0.5946971908
 C         -4.7577029022       -2.9187968080        0.5101990317
 C         -3.4660622217       -2.4447787197        0.6314730497
 C          3.4298205510        1.1798585851       -1.0914668761
 C          4.0118970911        2.2077050857       -1.8104438142
 H          3.9076223624        4.2719633017       -2.3679848220
 H          1.8592446350        4.7000355421       -1.0558452230
 H          0.8250123993        2.8723566652        0.2372165592
 H          3.9708461904        0.3772727395        1.7575044313
 H          5.7675944519       -1.2250473153        2.2936290799
 H          5.5055277233       -3.6104030345        1.7148580975
 H          3.4347798895       -4.3913005785        0.6271998468
 H          1.6409504139       -2.7947883013        0.0915396683
 H          1.9070907183       -0.7824291312       -2.5347176554
 H         -2.4388677823       -1.8643075749       -1.8668227977
 H         -2.2364263839        1.2018943093       -1.2530594182
 H         -2.3993228673        3.6509190665       -1.4418617643
 H         -1.9090419396        5.0799611284        0.5065294084
 H         -1.2446506967        4.0553704309        2.6515775255
 H         -1.0600998353        1.5957293587        2.8339547125
 H         -4.1333852931        0.8374846536        1.1036756665
 H         -6.4291126688       -0.0088780894        0.8901943571
 H         -6.8383179146       -2.4096168710        0.5005987085
 H         -4.9339912751       -3.9736113744        0.3551864930
 H         -2.6268904161       -3.1267013763        0.5797217631
 H          3.8779741974        0.1960465341       -1.0960364331
 H          4.9097330043        2.0194697908       -2.3818499590
  53
        -79.39099341
 C          5.0531127843        2.8103758656        0.3322020639
 C          4.9390610066        1.8999514279        1.3710866583
 C          3.8081994553        1.1142551681        1.4819145221
 C          2.7865761926        1.2152674497        0.5401861600
 P          1.2632474332        0.2342640716        0.7854657414
 C          1.9818899696       -1.4425085045        1.0121513057
 C          1.2419246602       -2.3468517734        1.7654793793
 C          1.6864196662       -3.6456157705        1.9362751414
 C          2.8787570485       -4.0488323475        1.3603170820
 C          3.6258522556       -3.1485399814        0.6173065858
 C          3.1826596096       -1.8509660236        0.4412178801
 C          0.7173779888        0.0421187698       -0.9417887674
 C          1.3396499435       -0.4633158454       -2.0363871376
 S          0.3333825016       -0.3904407362       -3.4354020139
 C         -0.9520410109        0.3199892653       -2.5247416875
 C         -0.6116548175        0.4818488517       -1.2219735741
 P         -1.5009019865        1.1681272344        0.2069166343
 C         -3.1083874590        1.5124415129       -0.6106817804
 C         -4.2978083493        0.8720569370       -0.2871711676
 C         -5.4725139579        1.2255764336       -0.9283454940
 C         -5.4738682228        2.2253270088       -1.8857465890
 C         -4.2953849939        2.8864910717       -2.1944653921
 C         -3.1227515468        2.5389840588       -1.5526627905
 C         -1.8928824810       -0.4135402520        1.0501036711
 C         -1.9892766766       -0.3916853928        2.4373159710
 C         -2.2836674657       -1.5492588947        3.1358026489
 C         -2.4750242614       -2.7388408875        2.4518953212
 C         -2.3751937263       -2.7667345673        1.0699309514
 C         -2.0877351422       -1.6099901560        0.3688055191
 C          2.8929534695        2.1529835843       -0.4809015382
 C          4.0257985893        2.9399329958       -0.5869843177
 H          5.9384170130        3.4228819469        0.2447124874
 H          5.7339525214        1.8048581380        2.0968080887
 H          3.7130573300        0.4051249196        2.2937683678
 H          0.3159019029       -2.0245772675        2.2197060067
 H          1.1027722566       -4.3410605192        2.5219147190
 H          3.2300094723       -5.0616907282        1.4928549665
 H          4.5599265402       -3.4604342405        0.1721295143
 H          3.7764637649       -1.1504598758       -0.1292090566
 H          2.3272056302       -0.8704112181       -2.1271820705
 H         -1.8703538521        0.5666423401       -3.0209507735
 H         -4.3073339495        0.0934561337        0.4624526014
 H         -6.3924539284        0.7170055577       -0.6774264019
 H         -6.3925095178        2.4944940248       -2.3861826835
 H         -4.2945250816        3.6762068331       -2.9320638294
 H         -2.2002832502        3.0579170199       -1.7801185854
 H         -1.8270154337        0.5399028664        2.9619931723
 H         -2.3578713369       -1.5262379807        4.2135867825
 H         -2.6990216595       -3.6452392928        2.9953915671
 H         -2.5224124193       -3.6946572002        0.5361333909
 H         -2.0190489955       -1.6344823185       -0.7099783102
 H          2.0885538541        2.2639623051       -1.1947679158
 H          4.1061831127        3.6586041447       -1.3899069335
