  53
  -79.0526565912000       0.316048231352975      !
 C          1.2037066831        3.9555667161       -0.4383433776
 C          0.8566147249        3.6167536170        0.8576087988
 C          0.9913222381        2.3089231930        1.2882658452
 C          1.4769732278        1.3346223493        0.4257161556
 P          1.5900669901       -0.3901929172        1.0410265351
 C          3.3621388404       -0.7482744550        0.7349061898
 C          3.7486893833       -2.0869613835        0.7221973933
 C          5.0765677976       -2.4321133199        0.5621743282
 C          6.0385621350       -1.4421848103        0.4374135664
 C          5.6658677865       -0.1098347827        0.4858411743
 C          4.3356620652        0.2388951948        0.6416917499
 C          0.8627332518       -1.1955518879       -0.4180645715
 C          1.4020775417       -1.8646900764       -1.4676447805
 S          0.1857971278       -2.4622098279       -2.5396612768
 C         -1.0655681515       -1.7929582177       -1.5599289260
 C         -0.5635757870       -1.1499021998       -0.4747038780
 P         -1.3912094590       -0.3016828898        0.8997131928
 C         -1.7981888277        1.3132935640        0.1367219617
 C         -1.4968625819        1.6690343588       -1.1708252343
 C         -1.8048337913        2.9370683609       -1.6309735937
 C         -2.4132783437        3.8567396231       -0.7945434990
 C         -2.7152896698        3.5082188815        0.5121622616
 C         -2.4024427011        2.2458736662        0.9765155122
 C         -3.0168189754       -1.1470125604        0.7579943163
 C         -4.1360056407       -0.6202993770        0.1267136743
 C         -5.3047116536       -1.3595439692        0.0633958161
 C         -5.3676490945       -2.6213580353        0.6294168353
 C         -4.2563642806       -3.1480238726        1.2679683198
 C         -3.0894473711       -2.4118101790        1.3358552617
 C          1.8280454392        1.6806306226       -0.8747568822
 C          1.6920723744        2.9874214845       -1.3018559898
 H          1.0930449366        4.9746372222       -0.7789297435
 H          0.4745343905        4.3703460783        1.5305857386
 H          0.7165808097        2.0311057953        2.2966389579
 H          2.9949094043       -2.8554525950        0.8351259934
 H          5.3649908501       -3.4733412616        0.5401585535
 H          7.0774270999       -1.7100810600        0.3122565782
 H          6.4156487993        0.6640863404        0.4039861119
 H          4.0530006455        1.2814972292        0.6857585053
 H          2.4331197390       -2.0645269209       -1.6858222787
 H         -2.0903170362       -1.9286426672       -1.8469927301
 H         -1.0196850339        0.9589299988       -1.8309001166
 H         -1.5668900778        3.2078944918       -2.6496138029
 H         -2.6498943157        4.8456171690       -1.1591556045
 H         -3.1889316172        4.2241422331        1.1683125100
 H         -2.6264355931        1.9660703062        1.9977862495
 H         -4.0950174158        0.3635238724       -0.3174127727
 H         -6.1710260748       -0.9474251948       -0.4330458127
 H         -6.2825387500       -3.1931530642        0.5761211008
 H         -4.3034573140       -4.1302752532        1.7155593346
 H         -2.2171527563       -2.8113665860        1.8366729370
 H          2.2080521016        0.9231020511       -1.5474042622
 H          1.9639661875        3.2535000220       -2.3134042206
  53
  -79.0525526059000       0.283116401204017      !
 C          1.1286749267        3.9704045548       -0.2480786777
 C          0.9661420711        3.6037971047        1.0765778130
 C          1.1181670540        2.2805617059        1.4494336152
 C          1.4408020625        1.3176950822        0.5010904601
 P          1.5921178942       -0.4199162197        1.0675870744
 C          3.3706226247       -0.7312572346        0.7427851121
 C          3.7962997505       -2.0571194719        0.7957794051
 C          5.1283007341       -2.3741231736        0.6148864881
 C          6.0556719700       -1.3662672688        0.4015992511
 C          5.6441593539       -0.0447353839        0.3790964128
 C          4.3091416793        0.2755751273        0.5550165687
 C          0.8837525227       -1.2255638970       -0.3991695576
 C          1.4433683351       -1.9100433618       -1.4282875824
 S          0.2482215508       -2.5280113470       -2.5115693510
 C         -1.0215844370       -1.8472317058       -1.5638106678
 C         -0.5418252395       -1.1880567238       -0.4777424424
 P         -1.3893551652       -0.3097207999        0.8654777269
 C         -1.7685524724        1.2929714948        0.0565704123
 C         -1.6861526817        1.5203580343       -1.3104332327
 C         -1.9910031110        2.7679472441       -1.8245079014
 C         -2.3785632703        3.7959262505       -0.9821763410
 C         -2.4588075576        3.5765740551        0.3830682776
 C         -2.1491197462        2.3330407124        0.8997412757
 C         -3.0282039114       -1.1253596538        0.7258152751
 C         -4.2148690809       -0.4552114054        0.4584916891
 C         -5.4102419624       -1.1525330765        0.4190335234
 C         -5.4337476191       -2.5162605031        0.6541721568
 C         -4.2548069696       -3.1873866735        0.9395012720
 C         -3.0611841006       -2.4944841165        0.9836484093
 C          1.6114173112        1.6924168587       -0.8270817047
 C          1.4533335376        3.0143070748       -1.1972046971
 H          1.0007206527        5.0013200417       -0.5439604880
 H          0.7128307121        4.3480445024        1.8175227139
 H          0.9825979818        1.9804325487        2.4795569547
 H          3.0682433249       -2.8377946143        0.9755149291
 H          5.4472477651       -3.4061796500        0.6458246795
 H          7.0983868357       -1.6114245765        0.2622165266
 H          6.3671215028        0.7434574668        0.2250027735
 H          3.9970210977        1.3104765645        0.5430715508
 H          2.4792511409       -2.1079371985       -1.6240636441
 H         -2.0410224895       -1.9944887667       -1.8646784911
 H         -1.3835840304        0.7241988721       -1.9755257134
 H         -1.9257721514        2.9375963094       -2.8897979305
 H         -2.6150016640        4.7682294482       -1.3890971529
 H         -2.7580751182        4.3774460152        1.0436877141
 H         -2.2017811924        2.1542222368        1.9656474590
 H         -4.2064048881        0.6095950717        0.2742565585
 H         -6.3283054892       -0.6256667860        0.2020911663
 H         -6.3686065254       -3.0560731511        0.6194429029
 H         -4.2696763449       -4.2507746639        1.1308424192
 H         -2.1375407338       -3.0108525037        1.2119424407
 H          1.8694593912        0.9473276083       -1.5675354718
 H          1.5832932903        3.3021052481       -2.2307063217
  53
  -79.0524888196000       0.264637189351862      !
 C          1.5517417615        4.2383271901       -0.7963318475
 C          1.8360845613        3.9847834570        0.5357850071
 C          1.7883055264        2.6901065546        1.0145122260
 C          1.4712002786        1.6334556750        0.1643701415
 P          1.4170884420       -0.0287579865        0.9341832716
 C          3.1899693194       -0.4957673592        0.8124957972
 C          3.5000110214       -1.7999317155        1.1927092286
 C          4.8039085056       -2.2526273463        1.1479435880
 C          5.8168734299       -1.4005252941        0.7364553521
 C          5.5174159791       -0.0983846965        0.3753048594
 C          4.2106753206        0.3575271034        0.4147856411
 C          0.8003197534       -1.0382130051       -0.4419400625
 C          1.4423530736       -1.5794961430       -1.5089330664
 S          0.3690868586       -2.4898621414       -2.5054540209
 C         -0.9645176349       -2.1320497907       -1.4669180792
 C         -0.5908740509       -1.3605787589       -0.4153345434
 P         -1.4994225357       -0.7084434168        1.0182903089
 C         -1.7184706317        1.0043651940        0.3984738357
 C         -2.0779353334        1.2768802169       -0.9170003854
 C         -2.2046819476        2.5857069917       -1.3407279314
 C         -1.9723143542        3.6294122134       -0.4587669048
 C         -1.6176413557        3.3630547728        0.8519918344
 C         -1.4893898564        2.0535476402        1.2792174911
 C         -3.1589882123       -1.4067923409        0.6685788003
 C         -4.3007709302       -0.6277328671        0.5257428250
 C         -5.5323032521       -1.2285988868        0.3315660465
 C         -5.6392157904       -2.6081461797        0.2939039868
 C         -4.5095411656       -3.3919371245        0.4686823875
 C         -3.2796643945       -2.7949634004        0.6667346798
 C          1.1847041722        1.8944795530       -1.1683789624
 C          1.2253448759        3.1933923981       -1.6431672151
 H          1.5820428399        5.2502468606       -1.1729922081
 H          2.0892794224        4.7983006229        1.2002423154
 H          1.9999184617        2.4822878873        2.0554404226
 H          2.7035469816       -2.4565788854        1.5176859180
 H          5.0341937848       -3.2679241209        1.4364371544
 H          6.8380091588       -1.7509653962        0.7010340691
 H          6.3057610886        0.5691967250        0.0578702365
 H          3.9876381480        1.3755363333        0.1293695703
 H          2.4802441674       -1.5146126894       -1.7727845168
 H         -1.9312420998       -2.5320179938       -1.7037131638
 H         -2.2592348736        0.4608526614       -1.6038854852
 H         -2.4834839004        2.7950942654       -2.3636326157
 H         -2.0673280411        4.6511010597       -0.7961389437
 H         -1.4352073412        4.1759710768        1.5394691166
 H         -1.2058460518        1.8330416002        2.2992664825
 H         -4.2269526824        0.4501456471        0.5607381794
 H         -6.4134665161       -0.6148426599        0.2108415795
 H         -6.6017174717       -3.0731142566        0.1385643241
 H         -4.5909761910       -4.4694232247        0.4558281938
 H         -2.3965814180       -3.4021484283        0.8176592584
 H          0.9280348744        1.0856763522       -1.8373390376
 H          1.0006529973        3.3896204085       -2.6816581622
  53
  -79.0503616329000       2.786528916505163E-002 !
 C          3.2985435272        3.9884902519        0.8017172785
 C          3.5712700963        3.0613098263        1.7952110380
 C          2.9361207674        1.8346308249        1.7888998282
 C          2.0347467224        1.5142316214        0.7761089335
 P          1.1600693928       -0.0845530638        0.8885602134
 C          2.5734274720       -1.2507202460        1.0190629477
 C          2.2966891716       -2.4840643995        1.5992228868
 C          3.2810738131       -3.4509369132        1.6924426649
 C          4.5521938571       -3.1882443351        1.2099434274
 C          4.8337390450       -1.9604773886        0.6322914971
 C          3.8503620419       -0.9930888659        0.5336196465
 C          0.7687360358       -0.3617617547       -0.8628029523
 C          1.4442742459       -0.9307390750       -1.8900841921
 S          0.5164537473       -0.9069806970       -3.3478337734
 C         -0.8084476950       -0.1343647996       -2.5456836304
 C         -0.5378097273        0.0794592521       -1.2358290366
 P         -1.4537688664        0.7889403493        0.1661175861
 C         -2.9850693962        1.3071423104       -0.7000522748
 C         -4.2533097364        0.8905965544       -0.3128048705
 C         -5.3726232735        1.3685925235       -0.9710499356
 C         -5.2391472035        2.2758971987       -2.0082831157
 C         -3.9796644289        2.7204886219       -2.3780791857
 C         -2.8608775764        2.2477982263       -1.7199911937
 C         -1.9950268793       -0.8049637471        0.8954931870
 C         -1.8673560583       -0.9724844779        2.2689631617
 C         -2.2267137940       -2.1700732130        2.8608619735
 C         -2.7117737000       -3.2072841779        2.0818817409
 C         -2.8433560913       -3.0429967706        0.7119728917
 C         -2.4869688175       -1.8466609197        0.1176151280
 C          1.7463988075        2.4575212150       -0.2024307721
 C          2.3815553541        3.6865687392       -0.1905208677
 H          3.7964009306        4.9470086941        0.8051001728
 H          4.2784773419        3.2980271923        2.5770935761
 H          3.1406594874        1.1089826895        2.5656202543
 H          1.2991280779       -2.6760836806        1.9737033483
 H          3.0592274587       -4.4076894495        2.1426539442
 H          5.3251104692       -3.9392749487        1.2839273467
 H          5.8257390839       -1.7570148169        0.2547053761
 H          4.0734570795       -0.0356772073        0.0834786316
 H          2.4253065975       -1.3638927348       -1.9001710291
 H         -1.6913225438        0.1050191981       -3.1060780552
 H         -4.3640674605        0.1862290870        0.4999241410
 H         -6.3546847779        1.0315175747       -0.6715418805
 H         -6.1151016765        2.6430053515       -2.5227306984
 H         -3.8725557040        3.4393410001       -3.1778292953
 H         -1.8761911310        2.6023323948       -1.9960233579
 H         -1.4788650235       -0.1580910279        2.8654014128
 H         -2.1235436354       -2.2970806929        3.9289341049
 H         -2.9863936644       -4.1460076859        2.5408101677
 H         -3.2221328422       -3.8525976550        0.1045834092
 H         -2.5909171043       -1.7171016384       -0.9512994849
 H          1.0271881199        2.2309176897       -0.9773530271
 H          2.1587854698        4.4122978295       -0.9595350486
  53
  -79.0501933760000       2.332050962234652E-002 !
 C          4.3441448119        3.6261076646       -1.7480964900
 C          3.0161224175        3.6534381775       -2.1440934112
 C          2.0945225221        2.8323556901       -1.5239633690
 C          2.4939276486        1.9573325739       -0.5161086383
 P          1.1845685575        0.9667779984        0.2996966085
 C          2.1722856134       -0.4019526431        1.0142525462
 C          3.0207385338       -1.1843092676        0.2387016756
 C          3.7251373814       -2.2220514909        0.8195365594
 C          3.5864775895       -2.4869510454        2.1731395060
 C          2.7427449310       -1.7100324401        2.9486880090
 C          2.0361111858       -0.6706654178        2.3702695244
 C          0.5581463216        0.0506776290       -1.1392803990
 C          0.9496726994       -0.0777398069       -2.4296594922
 S         -0.0658078061       -1.1789885930       -3.2935868178
 C         -1.0349235935       -1.4575210760       -1.8879727964
 C         -0.5942737943       -0.7345490653       -0.8306515512
 P         -1.1553633235       -0.5051143531        0.8825291860
 C         -2.1666942368        0.9930843773        0.5813240699
 C         -3.0706010036        1.0750733563       -0.4720093391
 C         -3.7952490090        2.2353517846       -0.6702198395
 C         -3.6217845864        3.3187991649        0.1769558425
 C         -2.7219159024        3.2411931102        1.2264202333
 C         -1.9948024447        2.0814390725        1.4273963039
 C         -2.4541113876       -1.7956368752        0.9606558935
 C         -3.7587490230       -1.5363609941        1.3638163234
 C         -4.6696512888       -2.5719788379        1.4755685733
 C         -4.2840922536       -3.8736991346        1.2038739785
 C         -2.9758398379       -4.1430379446        0.8334800291
 C         -2.0633663981       -3.1117608062        0.7239559589
 C          3.8201837532        1.9592690480       -0.1009292615
 C          4.7405572795        2.7850069484       -0.7223045626
 H          5.0664666069        4.2661859915       -2.2332031533
 H          2.7004171437        4.3191897532       -2.9345880430
 H          1.0532811046        2.8567180316       -1.8196063501
 H          3.1273369317       -0.9760077172       -0.8175702536
 H          4.3836116054       -2.8293477921        0.2149643379
 H          4.1360314742       -3.3017814799        2.6216480061
 H          2.6329179052       -1.9166626870        4.0034889336
 H          1.3692752095       -0.0617806671        2.9650352337
 H          1.7623178959        0.3974819217       -2.9442176733
 H         -1.8587244625       -2.1419827603       -1.9486849460
 H         -3.2052840469        0.2284038899       -1.1316992126
 H         -4.4972914934        2.2969791125       -1.4895208101
 H         -4.1881944664        4.2245528815        0.0161197937
 H         -2.5849955931        4.0858709041        1.8858101486
 H         -1.2847082478        2.0116491996        2.2398492100
 H         -4.0631176923       -0.5220601265        1.5823809594
 H         -5.6854225001       -2.3612211234        1.7781095272
 H         -4.9988514564       -4.6791373002        1.2886539466
 H         -2.6678881911       -5.1597343224        0.6351093944
 H         -1.0364045083       -3.3166007598        0.4489692333
 H          4.1340578043        1.3087038553        0.7036135751
 H          5.7725194756        2.7729726245       -0.4019238195
  53
  -79.0501082451000       2.131152775498505E-002 !
 C          3.0864934244        4.0586419391       -1.8108572807
 C          1.8291129567        4.1431849411       -1.2364343824
 C          1.3237396381        3.0711428853       -0.5243678537
 C          2.0689381370        1.9041927313       -0.3854405448
 P          1.2472707232        0.5357764009        0.5226549705
 C          2.6725438333       -0.5187193047        0.9578421350
 C          3.7059262349        0.0482758313        1.7008016530
 C          4.7685771534       -0.7273123844        2.1219456174
 C          4.7994444575       -2.0811679227        1.8255284774
 C          3.7584711407       -2.6564954668        1.1170035416
 C          2.6946135554       -1.8821993763        0.6890320829
 C          0.6100940431       -0.3583770156       -0.9266003649
 C          1.0708020201       -0.4915214613       -2.1945807729
 S          0.0243911815       -1.4782965701       -3.1496066262
 C         -1.0581503508       -1.6963674334       -1.8172655169
 C         -0.6267142009       -1.0394902645       -0.7133352022
 P         -1.2791242743       -0.8207931276        0.9703514209
 C         -1.9093126117        0.8874240331        0.7351346172
 C         -2.5393556887        1.2942477904       -0.4353885325
 C         -2.9607100342        2.6039492604       -0.5740074753
 C         -2.7591199830        3.5136856758        0.4519363179
 C         -2.1368286671        3.1113412549        1.6223869714
 C         -1.7105739546        1.8026691709        1.7622566172
 C         -2.8359262839       -1.7780603834        0.8166594681
 C         -4.0923868986       -1.2296949190        1.0444958889
 C         -5.2213548458       -2.0268362460        0.9740195349
 C         -5.1069563409       -3.3771695911        0.6910446621
 C         -3.8545639676       -3.9369537314        0.4932070698
 C         -2.7256905149       -3.1442962172        0.5669537043
 C          3.3291362106        1.8231536125       -0.9660276026
 C          3.8329416799        2.8995562631       -1.6738638237
 H          3.4860998955        4.8955518820       -2.3647338058
 H          1.2445401781        5.0456978095       -1.3412171312
 H          0.3433173087        3.1283122849       -0.0693258094
 H          3.6718955823        1.1045013187        1.9349542958
 H          5.5732889741       -0.2786890673        2.6861430362
 H          5.6309487635       -2.6876440794        2.1538161263
 H          3.7739827462       -3.7147185259        0.8974181175
 H          1.8792347778       -2.3375275591        0.1441931656
 H          1.9558379546       -0.0805101746       -2.6394865583
 H         -1.9384124974       -2.2940975006       -1.9528628551
 H         -2.7007195603        0.5839492756       -1.2349892905
 H         -3.4463004273        2.9178871322       -1.4869865271
 H         -3.0862657637        4.5369747842        0.3372912491
 H         -1.9783809908        3.8197855809        2.4227244351
 H         -1.2132149917        1.4796323154        2.6666545213
 H         -4.1884113256       -0.1772307441        1.2724707303
 H         -6.1957600435       -1.5910829319        1.1446102841
 H         -5.9910628009       -3.9949322288        0.6328655610
 H         -3.7605652936       -4.9934944502        0.2864539167
 H         -1.7436611434       -3.5778574364        0.4282158973
 H          3.9160337892        0.9211625839       -0.8616208830
 H          4.8133146107        2.8327408619       -2.1236778495
  53
  -79.0500155340000       1.932001736687167E-002 !
 C          4.3479854806        3.6571666776       -1.7881347316
 C          3.0411718660        3.6205736023       -2.2472886366
 C          2.1197057031        2.7876645961       -1.6424558536
 C          2.4987581238        1.9631609367       -0.5858662841
 P          1.2041569859        0.9574662847        0.2336789725
 C          2.2211471007       -0.3983200100        0.9311132159
 C          2.0864414442       -0.6924554242        2.2819050410
 C          2.8234917568       -1.7182302710        2.8468740192
 C          3.6954938741       -2.4549221109        2.0634440891
 C          3.8314431814       -2.1647103424        0.7146705958
 C          3.0970613864       -1.1407347343        0.1471018545
 C          0.5605269921        0.0352574564       -1.1954705665
 C          0.9469247636       -0.1342887396       -2.4824452307
 S         -0.1130842308       -1.2129487515       -3.3244211078
 C         -1.0905723138       -1.4261367043       -1.9144996528
 C         -0.6268100790       -0.6924653129       -0.8743075579
 P         -1.1366059501       -0.5071967946        0.8572452012
 C         -2.1867729500        0.9852827070        0.7513040904
 C         -2.0156082038        1.9757051584       -0.2072550428
 C         -2.7926346613        3.1199553766       -0.1707345472
 C         -3.7386778821        3.2898424715        0.8253315303
 C         -3.9034730822        2.3126434826        1.7942312862
 C         -3.1267397704        1.1708252790        1.7625695988
 C         -2.4424585797       -1.8017967216        0.8846221541
 C         -3.6670437266       -1.6632426694        0.2399610646
 C         -4.5820916702       -2.6993082505        0.2649570948
 C         -4.2842919888       -3.8787381234        0.9295664429
 C         -3.0664083192       -4.0223985716        1.5720760537
 C         -2.1498563545       -2.9861343844        1.5504654364
 C          3.8033548773        2.0298032582       -0.1094133221
 C          4.7233580494        2.8667846208       -0.7149259610
 H          5.0696364340        4.3070262593       -2.2610158603
 H          2.7408292172        4.2461345744       -3.0757645740
 H          1.0956762285        2.7676140887       -1.9918854588
 H          1.3991197355       -0.1120627756        2.8821981679
 H          2.7172727089       -1.9443335523        3.8980827151
 H          4.2703324659       -3.2576208196        2.5020907732
 H          4.5121724012       -2.7405027462        0.1040864627
 H          3.2024232486       -0.9113755263       -0.9047479726
 H          1.7770683174        0.2971267312       -3.0075287280
 H         -1.9403033209       -2.0788526920       -1.9600846865
 H         -1.2801257203        1.8521812180       -0.9903650008
 H         -2.6575768906        3.8831886772       -0.9238776003
 H         -4.3445908902        4.1836687347        0.8495015958
 H         -4.6362353369        2.4446860792        2.5773037150
 H         -3.2476183584        0.4067143212        2.5198197959
 H         -3.9012665960       -0.7430822114       -0.2778322148
 H         -5.5324866661       -2.5883978890       -0.2375991626
 H         -5.0033517305       -4.6848990560        0.9460075502
 H         -2.8327976294       -4.9408144878        2.0910341429
 H         -1.1949364251       -3.0865493567        2.0498212914
 H          4.0995925478        1.4190724848        0.7323241661
 H          5.7380490362        2.9043566373       -0.3450138184
  53
  -79.0499795563000       1.859830246344324E-002 !
 C          4.1679172231        3.7379101108       -1.8545513683
 C          2.8381790265        3.6819596183       -2.2415002359
 C          1.9706297613        2.8165553522       -1.6042229442
 C          2.4265051735        1.9795716308       -0.5880654502
 P          1.1829735790        0.9364428942        0.2609798880
 C          2.2422022159       -0.3864291917        0.9588711754
 C          2.1185608601       -0.6792884312        2.3111512784
 C          2.8804849047       -1.6863059821        2.8771554183
 C          3.7670762595       -2.4053207626        2.0935779261
 C          3.8923640639       -2.1164837266        0.7433831003
 C          3.1323277647       -1.1119962856        0.1745871614
 C          0.5585875294       -0.0149985899       -1.1567400963
 C          0.9541713181       -0.1845801890       -2.4409782473
 S         -0.0717527738       -1.2994261581       -3.2783868910
 C         -1.0518531516       -1.5238694362       -1.8715484521
 C         -0.6092845462       -0.7724820114       -0.8346568787
 P         -1.1538757217       -0.5663031643        0.8824507160
 C         -2.1191302439        0.9812527563        0.7516849981
 C         -2.1929719707        1.7687427199       -0.3898227984
 C         -2.8995933005        2.9584781095       -0.3659773152
 C         -3.5320635595        3.3734038185        0.7934122099
 C         -3.4548505950        2.5963902099        1.9384033531
 C         -2.7457720542        1.4108310933        1.9191528293
 C         -2.4998093871       -1.8179516789        0.8717731042
 C         -3.8467032941       -1.5354424255        0.6848257332
 C         -4.7731533515       -2.5637631108        0.6759726951
 C         -4.3657875222       -3.8752444756        0.8527872843
 C         -3.0237432940       -4.1622891944        1.0454901153
 C         -2.0974198206       -3.1373045323        1.0620528075
 C          3.7535554192        2.0637841647       -0.1836092224
 C          4.6197379157        2.9342359140       -0.8215833305
 H          4.8479032015        4.4139694946       -2.3518099963
 H          2.4783469732        4.3196209091       -3.0363040273
 H          0.9282757181        2.7773987535       -1.8932737265
 H          1.4201301739       -0.1129425214        2.9118791496
 H          2.7822517722       -1.9116541494        3.9292200741
 H          4.3608998482       -3.1936044027        2.5330770428
 H          4.5842073085       -2.6786109869        0.1324361658
 H          3.2280689991       -0.8850940392       -0.8787259247
 H          1.7735574410        0.2662002436       -2.9666942350
 H         -1.8875357942       -2.1947258291       -1.9143066739
 H         -1.7090614459        1.4514799670       -1.3026509566
 H         -2.9569315734        3.5644241904       -1.2590383463
 H         -4.0819652119        4.3030388241        0.8062294017
 H         -3.9443243478        2.9190946704        2.8459656337
 H         -2.6761771738        0.7987653697        2.8093527250
 H         -4.1723168588       -0.5146199109        0.5438048713
 H         -5.8197337543       -2.3390439280        0.5273172550
 H         -5.0935579206       -4.6734126265        0.8414928037
 H         -2.7029166140       -5.1845503155        1.1848148329
 H         -1.0465633203       -3.3480781094        1.2164361803
 H          4.1099423003        1.4433383181        0.6270912376
 H          5.6532234750        2.9852965606       -0.5102495800
  53
  -79.0494637539000       1.077523959826236E-002 !
 C          2.8794513255        3.9942096005       -1.9811345454
 C          1.6463470555        4.0581931202       -1.3543809581
 C          1.2117192996        2.9997120727       -0.5780032721
 C          2.0040663256        1.8663926475       -0.4254761438
 P          1.2735892439        0.4950719005        0.5556766636
 C          2.7670893441       -0.4775118429        0.9584459743
 C          2.8707267454       -1.8359121169        0.6839855104
 C          3.9928447278       -2.5406073642        1.0827002273
 C          5.0108807172       -1.9013895908        1.7693432399
 C          4.8998460415       -0.5531274780        2.0718966630
 C          3.7800749399        0.1531394577        1.6780544686
 C          0.6222826593       -0.4593034274       -0.8495593820
 C          1.1006300122       -0.6650151989       -2.1018898848
 S          0.0468861869       -1.6684825764       -3.0286597822
 C         -1.0642735610       -1.7935068391       -1.7091824113
 C         -0.6349864455       -1.0975992927       -0.6280122788
 P         -1.3223287099       -0.8101954949        1.0311846281
 C         -1.8947739116        0.9094033552        0.7399448402
 C         -2.4714890243        1.3138743616       -0.4586604651
 C         -2.8553253680        2.6312028713       -0.6312712405
 C         -2.6678702231        3.5516157210        0.3878127352
 C         -2.0980862444        3.1521593936        1.5856542563
 C         -1.7106962748        1.8354785464        1.7600431897
 C         -2.8993967336       -1.7314602411        0.8542617368
 C         -4.1521280941       -1.1431456507        0.9776077280
 C         -5.2952421281       -1.9182376893        0.8878298043
 C         -5.1998307269       -3.2849738660        0.6899006912
 C         -3.9529108015       -3.8828442326        0.5958585352
 C         -2.8104796929       -3.1120659518        0.6884805341
 C          3.2421921369        1.8079260403       -1.0545927522
 C          3.6746946326        2.8702397114       -1.8277052216
 H          3.2223086601        4.8195598403       -2.5878641737
 H          1.0240138140        4.9338656826       -1.4692870914
 H          0.2505852971        3.0432551605       -0.0835879188
 H          2.0746875474       -2.3414844303        0.1556614661
 H          4.0716159576       -3.5945489466        0.8570855327
 H          5.8871755305       -2.4537261364        2.0754612458
 H          5.6871698848       -0.0546741950        2.6187789774
 H          3.6839223323        1.2045174165        1.9162534442
 H          2.0056811989       -0.3004191722       -2.5470144008
 H         -1.9570283745       -2.3750922137       -1.8319338376
 H         -2.6222912373        0.5955426746       -1.2532253316
 H         -3.3003717211        2.9426692270       -1.5654720603
 H         -2.9642793069        4.5809142741        0.2464888856
 H         -1.9499272369        3.8689034049        2.3802656843
 H         -1.2541228360        1.5145669321        2.6863250939
 H         -4.2353491078       -0.0774717459        1.1388707291
 H         -6.2661136391       -1.4515935764        0.9743341011
 H         -6.0947449290       -3.8855191283        0.6175978805
 H         -3.8742610414       -4.9514680765        0.4554976882
 H         -1.8334143975       -3.5742848345        0.6295032000
 H          3.8687454538        0.9346477316       -0.9370701506
 H          4.6375276142        2.8196124062       -2.3159026705
  53
  -79.0493527577000       9.581127383255995E-003 !
 C          2.7275170746        4.0563159678       -1.8220291779
 C          1.5387735464        4.0768337600       -1.1125800670
 C          1.1562549220        2.9711711685       -0.3752545849
 C          1.9555101066        1.8333106269       -0.3460841450
 P          1.3046440966        0.3988326124        0.6010184458
 C          2.8499833060       -0.5206006577        0.9288075846
 C          3.8844620440        0.1419245003        1.5861801762
 C          5.0417122639       -0.5324663022        1.9240481236
 C          5.1699545658       -1.8807254483        1.6295083850
 C          4.1318306180       -2.5524479270        1.0062854277
 C          2.9727849884       -1.8795662776        0.6629182705
 C          0.6502277754       -0.5366069661       -0.8171410386
 C          1.1498558070       -0.7616627081       -2.0580103110
 S          0.0804005880       -1.7222040795       -3.0117444048
 C         -1.0663718659       -1.8030851275       -1.7204641965
 C         -0.6361431019       -1.1259903437       -0.6273489174
 P         -1.3559713175       -0.8326848825        1.0162668008
 C         -1.8702497397        0.9086078406        0.7497418658
 C         -2.3286439244        1.3807969578       -0.4752005259
 C         -2.6928257955        2.7076830629       -0.6120559873
 C         -2.6064337028        3.5704928927        0.4693146544
 C         -2.1528902310        3.1044464371        1.6924822304
 C         -1.7824390824        1.7784061705        1.8308322522
 C         -2.9622662102       -1.6902186702        0.7858372368
 C         -4.1936802364       -1.0508314734        0.8589706727
 C         -5.3633708743       -1.7790703828        0.7292513098
 C         -5.3166037895       -3.1495332570        0.5403669401
 C         -4.0923602862       -3.7978259612        0.4944896562
 C         -2.9236435570       -3.0737934578        0.6272086221
 C          3.1494846604        1.8185043508       -1.0586895366
 C          3.5309415729        2.9278629029       -1.7908258569
 H          3.0304041726        4.9190124368       -2.3971863283
 H          0.9100730611        4.9552951463       -1.1308186775
 H          0.2322451307        2.9831101396        0.1856503739
 H          3.7778569683        1.1940165872        1.8168371227
 H          5.8453197222       -0.0077978983        2.4204953173
 H          6.0751856417       -2.4081011513        1.8920232933
 H          4.2248860736       -3.6063549743        0.7868638842
 H          2.1614277178       -2.4096405489        0.1838533838
 H          2.0786363628       -0.4348293569       -2.4827763185
 H         -1.9788527905       -2.3478751293       -1.8655750218
 H         -2.4032400161        0.7082904400       -1.3187391267
 H         -3.0456351089        3.0717475796       -1.5663330392
 H         -2.8912449959        4.6065442316        0.3570306015
 H         -2.0827253156        3.7757519048        2.5361389701
 H         -1.4168645028        1.4060848112        2.7779279408
 H         -4.2401375668        0.0181158131        1.0125511025
 H         -6.3166611996       -1.2724985747        0.7788152470
 H         -6.2319731636       -3.7135925453        0.4372474452
 H         -4.0520648006       -4.8693664173        0.3606331214
 H         -1.9647439072       -3.5757403339        0.6056026099
 H          3.7842612953        0.9437776639       -1.0329879729
 H          4.4603558378        2.9114380245       -2.3421571395
  53
  -79.0488154628000       5.426164736928901E-003 !
 C          4.4338861729        3.6513586190        0.7421274615
 C          4.4466894060        2.6723538779        1.7232224923
 C          3.4756420340        1.6897992131        1.7333520683
 C          2.4919711329        1.6629531457        0.7472279753
 P          1.1658215649        0.4093594900        0.8607642246
 C          2.1701157054       -1.1206729810        1.0333725357
 C          1.5786512400       -2.1890673011        1.6978963927
 C          2.2465938761       -3.3941472826        1.8210621186
 C          3.5150843861       -3.5384521820        1.2861904991
 C          4.1138755799       -2.4733881677        0.6321033932
 C          3.4476456223       -1.2689108457        0.5036621463
 C          0.7351511308        0.2297482387       -0.9000776709
 C          1.4835739181       -0.0856194061       -1.9869257320
 S          0.5387373708       -0.1088000457       -3.4297958326
 C         -0.8911574389        0.2993538343       -2.5493766897
 C         -0.6394956119        0.4385509915       -1.2240252194
 P         -1.6969088054        0.8623181439        0.1922249396
 C         -3.3056918879        0.9606263480       -0.6870824724
 C         -4.3695642829        0.0968558394       -0.4600370769
 C         -5.5621403402        0.2714441831       -1.1406949027
 C         -5.7079960753        1.3121823194       -2.0416444793
 C         -4.6592805897        2.1934492478       -2.2533810361
 C         -3.4698685451        2.0243486236       -1.5718791125
 C         -1.8259594202       -0.8135885093        0.9277301764
 C         -1.9810379503       -0.8960426328        2.3073241050
 C         -2.0861729929       -2.1290185057        2.9263904243
 C         -2.0280407961       -3.2886064389        2.1704615609
 C         -1.8686924265       -3.2117855743        0.7959520613
 C         -1.7701066615       -1.9807122765        0.1738537371
 C          2.4658989116        2.6662489419       -0.2150430604
 C          3.4384716706        3.6500964358       -0.2202713564
 H          5.1945820155        4.4180699073        0.7333332280
 H          5.2153636636        2.6774842619        2.4826172602
 H          3.4793113856        0.9259452522        2.4998623829
 H          0.5915304294       -2.0684743981        2.1206855721
 H          1.7771475732       -4.2187839361        2.3376431582
 H          4.0405401290       -4.4773758040        1.3818218212
 H          5.1066318877       -2.5829009010        0.2193113177
 H          3.9255205501       -0.4384183026        0.0030457091
 H          2.5319210903       -0.3009992623       -2.0487021090
 H         -1.8181935130        0.4063647266       -3.0780660662
 H         -4.2665271066       -0.7158283451        0.2450682341
 H         -6.3825695044       -0.4097001531       -0.9651026024
 H         -6.6393140203        1.4414957582       -2.5733529670
 H         -4.7733573737        3.0147269097       -2.9463403909
 H         -2.6498112680        2.7146582061       -1.7233850782
 H         -2.0139348363        0.0149792835        2.8890701184
 H         -2.2070919490       -2.1870266199        3.9986163708
 H         -2.1038246131       -4.2526543727        2.6521144101
 H         -1.8213228964       -4.1159213888        0.2060807632
 H         -1.6542965074       -1.9250834955       -0.8997316810
 H          1.6844892288        2.6742527768       -0.9622478978
 H          3.4181939563        4.4200903850       -0.9781188023
