  53
        -79.39489540
 C          2.3533067280        3.8353157241       -0.8704969939
 C          2.6090283845        3.5383018108        0.4584348088
 C          2.3125995909        2.2826471422        0.9514988933
 C          1.7721125081        1.3058105432        0.1187490175
 P          1.4018868328       -0.3067703126        0.9067912343
 C          3.0420719695       -1.1209947490        0.7556506194
 C          3.0921281950       -2.4584125516        1.1433886418
 C          4.2774636409       -3.1639634781        1.0780915001
 C          5.4318707015       -2.5352273588        0.6381669106
 C          5.3921771084       -1.2017962339        0.2693032056
 C          4.2045906994       -0.4925573730        0.3293382734
 C          0.5662739671       -1.1805434503       -0.4464973983
 C          1.0640254815       -1.8464716819       -1.5200202486
 S         -0.1908191310       -2.5291105533       -2.4859859838
 C         -1.4033321653       -1.9042385704       -1.4255923435
 C         -0.8604316640       -1.2168422619       -0.3895661014
 P         -1.5892514707       -0.3864837260        1.0545071176
 C         -1.4732581893        1.3314580861        0.4211909605
 C         -1.7984008108        1.6622452991       -0.8898444438
 C         -1.6689118831        2.9671520045       -1.3246873712
 C         -1.2133467434        3.9485225361       -0.4583486245
 C         -0.8917614768        3.6246995537        0.8480009791
 C         -1.0198391839        2.3188464010        1.2863191098
 C         -3.3621730510       -0.7396049197        0.7443425057
 C         -4.3272096604        0.2519169561        0.6155315321
 C         -5.6580609747       -0.0906630460        0.4515492886
 C         -6.0403215324       -1.4208616301        0.4303821465
 C         -5.0874198104       -2.4143847623        0.5914119153
 C         -3.7588891368       -2.0752607174        0.7593414879
 C          1.5157690724        1.6105804553       -1.2108512989
 C          1.8061390955        2.8718429607       -1.6998832745
 H          2.5780448326        4.8181339427       -1.2582259401
 H          3.0342285408        4.2886147647        1.1093239159
 H          2.5001197068        2.0431814499        1.9902445464
 H          2.1871578856       -2.9396964884        1.4905843107
 H          4.3054188727       -4.2029704622        1.3726596249
 H          6.3609673451       -3.0837744053        0.5866239783
 H          6.2915479261       -0.7081229453       -0.0703091060
 H          4.1843436183        0.5476710108        0.0376780752
 H          2.0880349338       -1.9929749696       -1.8046020497
 H         -2.4354153606       -2.1034550780       -1.6394140629
 H         -2.1541600077        0.8948955289       -1.5645231518
 H         -1.9215451914        3.2217590407       -2.3441280125
 H         -1.1085592741        4.9663210393       -0.8044719915
 H         -0.5355027892        4.3887774693        1.5232822441
 H         -0.7648522486        2.0523770518        2.3029290135
 H         -4.0379372484        1.2932239869        0.6378259058
 H         -6.4005307233        0.6867378032        0.3415202344
 H         -7.0795909379       -1.6840840326        0.2985933780
 H         -5.3836068688       -3.4536375785        0.5913968628
 H         -3.0125841255       -2.8464181412        0.8994574677
 H          1.0880166306        0.8655544084       -1.8662239915
 H          1.6035350666        3.1025957496       -2.7358176727
