  57
        -96.30919326
 F         -2.5341988152        2.4438353621        1.0146880154
 C         -1.5214115644        1.6316488108        0.6481998819
 C         -0.2366609807        2.0570553254        0.8130757211
 C          0.8165249652        1.1870838495        0.4700820511
 N          2.0897616422        1.5353707812        0.7150009298
 C          3.0507143933        0.7129095577        0.3625078922
 C          4.4082874939        1.0635634801        0.7906923987
 C          5.2964503966        0.0905737518        1.2454154092
 C          6.5645109493        0.4500905821        1.6597395249
 C          6.9615464815        1.7771670482        1.6244357169
 C          6.0765034858        2.7512232952        1.1918759114
 C          4.8039013083        2.3993960073        0.7848418162
 C          2.7518077825       -0.4809539615       -0.3768646225
 C          3.7875268281       -1.2885902644       -1.0296514819
 C          4.8708103525       -0.6895278543       -1.6700237793
 C          5.8236278735       -1.4702876456       -2.2959928690
 C          5.7093023379       -2.8513251300       -2.2900177724
 C          4.6247738528       -3.4516771717       -1.6711374839
 C          3.6638814676       -2.6759839978       -1.0510724831
 N          1.5110931453       -0.8798218462       -0.5261741740
 C          0.5166856983       -0.0919668935       -0.0766115901
 C         -0.8211917564       -0.4981703769       -0.2161101988
 C         -1.8460599178        0.3472872878        0.1404653516
 N         -3.1914352481       -0.0328032293        0.0197499344
 C         -3.7173587243       -1.0862175372        0.7755328700
 C         -2.9352526096       -1.8675954344        1.6158894966
 C         -3.4983115293       -2.8920375677        2.3618250334
 C         -4.8520838567       -3.1489360115        2.2850621973
 C         -5.6502449946       -2.3641509206        1.4668621294
 C         -5.0952139098       -1.3383529504        0.7233257343
 O         -5.9577088792       -0.5892542387       -0.0356432169
 C         -5.4185210242        0.4060972959       -0.8103636616
 C         -6.2854031132        1.1132718506       -1.6229478283
 C         -5.8045146055        2.1122994743       -2.4559512223
 C         -4.4510208494        2.3810123847       -2.4880922799
 C         -3.5776225700        1.6727017623       -1.6776183080
 C         -4.0493549277        0.6977138418       -0.8087220371
 H         -0.0177515990        3.0281526611        1.2258291848
 H          4.9868584208       -0.9432397598        1.2902675424
 H          7.2466802737       -0.3091071010        2.0126070813
 H          7.9564266488        2.0519115460        1.9417112497
 H          6.3790374164        3.7878298082        1.1750774025
 H          4.1021518191        3.1473204492        0.4490412288
 H          4.9553667660        0.3871097277       -1.6932223390
 H          6.6588837501       -0.9986008200       -2.7922594930
 H          6.4608829722       -3.4575505161       -2.7733933710
 H          4.5270921485       -4.5272704810       -1.6751576189
 H          2.8111608152       -3.1294734644       -0.5693162039
 H         -1.0285565201       -1.4729884321       -0.6283277467
 H         -1.8788613430       -1.6687174029        1.7012706321
 H         -2.8655141266       -3.4829319937        3.0057562059
 H         -5.2944780490       -3.9462669385        2.8608970984
 H         -6.7139757604       -2.5256352490        1.3967494688
 H         -7.3341145673        0.8652214463       -1.5897597402
 H         -6.4886417206        2.6638312111       -3.0811517899
 H         -4.0605029564        3.1419240645       -3.1459396131
 H         -2.5197797515        1.8803984502       -1.7254107987
