45
 energy: -74.940560057961 gnorm: 0.000067196245 xtb: 6.7.1 (edcfbbe)
C           -2.95009243381080        1.88412171983809       -1.89697824270826
C           -3.63320653749704        1.64885613226517       -0.71608205960737
C           -3.41631070450184        0.47976717621316       -0.00808507141946
C           -2.50420953763516       -0.46403534387861       -0.46945159979131
C           -2.29833993481581       -1.72232060030655        0.26407685383061
C           -3.38302290836454       -2.54124928663991        0.56796647716668
C           -3.17206412841018       -3.75916393626648        1.19100084272114
C           -1.86500158672805       -4.12934642852490        1.47189090948593
N           -0.82604002262006       -3.35759267584139        1.21414282773951
C           -1.02376940554746       -2.17302160873021        0.64485478417880
C            0.18016771695792       -1.34313759988478        0.45918895505705
C            1.40699221335677       -1.93998360785236        0.18239701986024
C            2.52212695304994       -1.12485640707090       -0.00009110661895
C            3.81342003151112       -1.71176271429599       -0.31211417666101
C            5.05636640696162       -1.11506420712281       -0.45991583710486
N            5.88129077136544       -2.14348275807145       -0.74800669177526
N            5.20114852621805       -3.28892097602599       -0.77846305598613
N            3.98103732587304       -3.04392849693551       -0.52169149681284
C            2.35553727150196        0.25284995968647        0.11653586422702
C            1.09156186484647        0.75433943416882        0.41893227690007
C            0.87453939969755        2.20139486132323        0.56320073131756
C           -0.39218397841844        2.70264841687373        0.86656601711274
C           -0.55452430523813        4.07034767478580        0.98907148228365
C            0.54726719350096        4.89392567715881        0.80787155872353
C            1.76434363902986        4.29889947329045        0.50939694953353
N            1.93149245917878        2.99486512338660        0.38926861889452
N            0.03018262694851       -0.02939787485630        0.58405299827190
C           -1.82843952212644       -0.22405073466145       -1.66321888576902
C           -2.04972786813972        0.94271526123247       -2.36970827116466
H           -3.11869230629243        2.79663561066126       -2.44974694458422
H           -4.33780205299336        2.37865174050680       -0.34398134434423
H           -3.94162116016895        0.30186630537431        0.91964490023391
H           -4.38049408696258       -2.22537599858814        0.29637174331170
H           -3.99571489629703       -4.41015013368571        1.43892783276271
H           -1.63199419218032       -5.08148542655405        1.93084122852372
H            1.49048339641803       -3.01113522145658        0.10507814292662
H            5.39073495770063       -0.10304766224889       -0.38164829384748
H            6.87514532394641       -2.12105584427481       -0.92538825396524
H            3.16947997155993        0.94569965144398       -0.01677008618446
H           -1.20947304715047        2.01127493837948        0.98812323665260
H           -1.52270514112612        4.48912319981029        1.22229536803889
H            0.46705782702008        5.96621629274810        0.89444531272625
H            2.65647030970365        4.89404434928789        0.35736741923501
H           -1.13279628567408       -0.96243181993458       -2.03779796664588
H           -1.51862114364807        1.11775436527838       -3.29436996673279
