45
 energy: -74.881232704057 gnorm: 0.000043322549 xtb: 6.7.1 (edcfbbe)
C           -3.70357318715811        1.06039350639611       -1.30558437421825
C           -4.44420545598967        0.10576805946343       -0.58153836527143
C           -3.82699714522502       -1.03404503611664       -0.08646498052621
C           -2.48448209903308       -1.28233601250967       -0.29235755721624
C           -1.78337298528263       -2.45809092432500        0.12488953088839
C           -2.40340362067292       -3.65407650484423        0.50209866601670
C           -1.63444622430877       -4.76621122773149        0.78682856819962
C           -0.25016154873556       -4.66497472913404        0.65534893187073
N            0.36947099069356       -3.54746614741786        0.34458223291031
C           -0.35350392862310       -2.44631247084278        0.11255343655158
C            0.36210802668923       -1.21413679949333       -0.07695163015795
C            1.73395924462901       -1.13679845030372       -0.02030270443865
C            2.39236807475167        0.09579925030911       -0.12554002327697
C            3.82772903808583        0.16496216379702       -0.14323026337629
C            4.67488695502109        1.26368154974799       -0.24442090141191
N            5.91506443079467        0.72570967388707       -0.21941123038358
N            5.84502249253644       -0.60015929269303       -0.11325245156591
N            4.62039629974692       -0.94187318649681       -0.06872796056982
C            1.58935666532237        1.25385312721225       -0.12058529800191
C            0.22043144421493        1.17042211770231       -0.14467936836617
C           -0.58191478551504        2.35299671260731        0.12827679985656
C           -1.77494913686613        2.25798338551640        0.86020138722552
C           -2.47795162902191        3.41353006658657        1.13820787494133
C           -1.98560120913168        4.62893121199163        0.67968327916800
C           -0.78353821837658        4.62304773304205       -0.01386412461166
N           -0.09645214526127        3.52986244847827       -0.28222602083925
N           -0.39903692263908       -0.05876016402240       -0.27420427071459
C           -1.63638124315785       -0.29269020256049       -1.04763906705357
C           -2.36904407114801        0.92132359065092       -1.49524811451945
H           -4.20895904710337        1.93323393807539       -1.69192708165076
H           -5.49631106750125        0.26663628465959       -0.40888394484278
H           -4.41304941758670       -1.73941630989016        0.48350477204537
H           -3.48067731427767       -3.71793778073649        0.53474622177624
H           -2.09046841587239       -5.70074620575415        1.07336432353644
H            0.39115550982775       -5.52276417575986        0.81337361708893
H            2.29987905334890       -2.04319899767594        0.11524525085403
H            4.49868948695263        2.31404972644347       -0.32921424667151
H            6.80455434397333        1.19902967334863       -0.27141615947538
H            2.02593576846815        2.23507329479380       -0.03098150895797
H           -2.10548253775713        1.30141457846428        1.23349619005928
H           -3.39518754633678        3.37043385110635        1.70752957626695
H           -2.50901350669198        5.55308489843736        0.86676014605019
H           -0.34383199130564        5.54353270288033       -0.37811061336841
H           -1.28295122784279       -0.80102538082982       -1.97308241546332
H           -1.80351912309332        1.64812703125975       -2.05854932161381
