45
 energy: -74.940559493685 gnorm: 0.000037879345 xtb: 6.7.1 (edcfbbe)
C           -3.94424009753423        0.71603132788984       -1.81929259509415
C           -4.42342562890481        0.13332960091344       -0.65845897194495
C           -3.70625975080533       -0.87588848908894       -0.04018147581782
C           -2.49486322940703       -1.30710411541725       -0.57189959968511
C           -1.75651973843243       -2.40782945207143        0.06613435316626
C           -2.39300068105207       -3.62485351691807        0.29952646288913
C           -1.68112651010873       -4.68399450764367        0.83481405854722
C           -0.33380001892344       -4.49186799073049        1.10381788464324
N            0.28122897923710       -3.34063999118322        0.91331417578561
C           -0.40266497431547       -2.30933050221373        0.42638207237902
C            0.35173205672137       -1.04787096005492        0.31813808034234
C            1.72344061967779       -1.07871896617406        0.07960217857002
C            2.41654195241994        0.12640261629869       -0.00851009405499
C            3.84679215128357        0.12995473170525       -0.26039299150902
C            4.74198945031017        1.18657770304494       -0.33070574608353
N            5.92812808723635        0.59471551519589       -0.58403011807530
N            5.77856228918273       -0.72680873430183       -0.66632137112377
N            4.55460047993805       -1.00984512459426       -0.47610799655211
C            1.69927438361155        1.30925458119592        0.15065993928515
C            0.33072222177727        1.23767535381001        0.40131686697998
C           -0.45807099588997        2.46456955175475        0.58782049905816
C           -1.83212737113843        2.39874358129049        0.82237763652646
C           -2.53583656528782        3.57730367998386        0.98934703779634
C           -1.85052307988112        4.78173510677956        0.92039981053101
C           -0.48415678632080        4.74182697091122        0.68383270710848
N            0.19788304457572        3.62336739723598        0.52101884539050
N           -0.32463592957702        0.08332751192662        0.48356839833586
C           -2.02483072247861       -0.72262581316437       -1.74504430610277
C           -2.74472605422417        0.28301909966502       -2.36165540627615
H           -4.50285820913598        1.50444568262094       -2.30201922759664
H           -5.35909785243008        0.46535028622977       -0.23206748598436
H           -4.07480861411274       -1.32275232306739        0.87239973487329
H           -3.43680968900950       -3.73616185006747        0.04152899039718
H           -2.15281287136023       -5.63522336744573        1.02539940369551
H            0.28500944984678       -5.28844713020876        1.49639920071470
H            2.23795913152471       -2.01829346705624       -0.03264535649779
H            4.62890319681396        2.24374959965634       -0.22260762105727
H            6.83297131025110        1.02638475632414       -0.70476828969987
H            2.16495737369368        2.27875759405511        0.09147632956140
H           -2.30801736852965        1.43296162024757        0.85906521181002
H           -3.60067226440434        3.55910103279311        1.17076398129359
H           -2.35854378588324        5.72515214891757        1.04540493966243
H            0.10018373790648        5.65159648785192        0.62030969764884
H           -1.09441567876917       -1.06727521380679       -2.17474300705870
H           -2.36951645992427        0.72997477068344       -3.27111852434205
