60
 energy: -91.828143841574 gnorm: 0.000050451031 xtb: 6.7.1 (edcfbbe)
C           -2.21113990091913       -3.20454901911205        1.84028986194925
C           -0.87789068977608       -3.00688674537550        1.53024123638608
C           -0.48436132078618       -1.90815720940509        0.76777378823386
C            0.93160947269308       -1.68148706890984        0.44268327827335
C            1.77833967831410       -2.74508314629148        0.11868179630247
C            3.10035689664689       -2.51308719424302       -0.16683378305176
C            3.65325377530345       -1.22375370975209       -0.14974118500910
C            5.05939252205915       -0.99051471361236       -0.42206780014326
C            5.93912166761273       -2.04767125674952       -0.69810266766716
C            7.27544662626736       -1.83642834976778       -0.94001764208635
C            7.78277280191576       -0.54346623625545       -0.90842387985033
C            6.94209770564321        0.51066417010118       -0.64064790179455
C            5.57343676466555        0.32484403242333       -0.39762601707391
C            4.68904561717723        1.44568778455070       -0.12757404081332
C            5.15573153252350        2.76832477073480       -0.13817240670505
C            4.32504003958562        3.83473667548672        0.11122009259534
C            2.98044572458589        3.61020001143970        0.37810203672112
C            2.49626129170023        2.32385079726383        0.39154436455343
C            3.32282140498548        1.21760563406492        0.14666783808613
C            2.80210678213535       -0.13903404061996        0.15400518736280
C            1.46079132741361       -0.40394495500830        0.45202299467080
C           -1.45817422005002       -1.02186775463218        0.31798063603141
C           -2.79585725563797       -1.21378447257022        0.64000134815916
N           -3.75668937782811       -0.28947934348493        0.19799160315519
C           -4.92586297944401       -0.58594557131825       -0.47221624644557
C           -5.41078620161367       -1.81294104139140       -0.90338420417821
C           -6.61602511845918       -1.82950501203385       -1.57899327336257
C           -7.32478241503471       -0.65633963680160       -1.83192501666270
C           -6.83581545097944        0.56981856225415       -1.42698935621294
C           -5.62602149992727        0.61265246399951       -0.74534614721173
C           -4.83196395922576        1.68076958870080       -0.20504816831580
C           -4.99386846543245        3.05940105253387       -0.14489493333974
C           -4.02485629597885        3.81363206429074        0.48655512871634
C           -2.91317171144027        3.20872487392396        1.07046499620501
C           -2.73060709307560        1.84000214864558        1.02425376590575
C           -3.68724944690779        1.07855330722977        0.36711936658136
C           -3.17477519993732       -2.31129868117659        1.40709129363433
H           -2.50329382380588       -4.05550938632076        2.43813073093477
H           -0.13300135357448       -3.69578152238745        1.89909462942639
H            1.38694566877904       -3.75074263372349        0.07570848032597
H            3.71605043308522       -3.36268538298028       -0.41293000683840
H            5.57624143094123       -3.06213615590767       -0.72266263493441
H            7.92719963826304       -2.67194716091175       -1.15034212079598
H            8.83244545227343       -0.36584794697324       -1.09216427235762
H            7.36740676937578        1.50066124124095       -0.61824559370210
H            6.19160664097948        2.97603774257849       -0.35066842189338
H            4.71645119419195        4.84156388116071        0.09536290485513
H            2.31672733948597        4.44060158214052        0.57049174201466
H            1.44659574017135        2.18497118970839        0.59221140807409
H            0.80354148224559        0.40486716059387        0.72444284123325
H           -1.18262450861717       -0.18859062981521       -0.31142494735722
H           -4.86143147366891       -2.72527716170662       -0.72583398764752
H           -7.01674879164018       -2.77267258927088       -1.92142603427407
H           -8.26545277121911       -0.71144248952419       -2.36019604619729
H           -7.37820525984873        1.47986901883368       -1.63679148216229
H           -5.86399425588391        3.52740842117113       -0.58099472967596
H           -4.13099598446318        4.88732608382418        0.54120938969358
H           -2.18093786354196        3.82372813628550        1.57367730757106
H           -1.87930835944519        1.37643405656323        1.49973232033079
H           -4.21281914834209       -2.44956789831596        1.66944488513765
