60
 energy: -91.828056793617 gnorm: 0.000049914840 xtb: 6.7.1 (edcfbbe)
C           -2.31997185962765       -2.91970228257967        2.18779186937163
C           -0.98268732050046       -2.79450491927786        1.85789868787531
C           -0.56235211496900       -1.79590278515199        0.98123343365480
C            0.85812860190451       -1.65123212316758        0.62894099948800
C            1.65192882460929       -2.77094178612385        0.36756822566173
C            2.97241772951786       -2.61570683789631        0.02786351064676
C            3.57676154424955       -1.35277175112710       -0.06056362536222
C            4.96757756008397       -1.19685296841643       -0.44433405237257
C            5.75483847454062       -2.29694470385342       -0.81531295386761
C            7.07026590659816       -2.15567839032419       -1.18780894648113
C            7.64659525826692       -0.89169313414355       -1.20726461703601
C            6.89526533977930        0.20392225648536       -0.85403054297241
C            5.55302940149729        0.08814287160814       -0.46458982329674
C            4.76176573110989        1.25247127657742       -0.10505197696132
C            5.32297493663994        2.53719085136980       -0.06424264979763
C            4.57405271257643        3.64820475485897        0.24265225358921
C            3.21979444313482        3.50859014251914        0.51865062194572
C            2.64832975548029        2.25859238027683        0.50189176469858
C            3.39173576423522        1.10718589089247        0.20463032654724
C            2.79113961832712       -0.21591106379319        0.22941367586614
C            1.44313372092521       -0.40063905439918        0.55733179933472
C           -1.51051231328137       -0.93524222513013        0.43770263513088
C           -2.85345524205745       -1.05915605355199        0.77203175691630
N           -3.79429280609507       -0.17426834955681        0.21999127527498
C           -4.96351514202525       -0.52862583305913       -0.42189813196478
C           -5.46712929723939       -1.78963819896248       -0.70993545231214
C           -6.66682229411904       -1.86595209086003       -1.39130661625791
C           -7.35219492610396       -0.71930014423660       -1.78895843261034
C           -6.84446736996312        0.53767005069639       -1.52672161499950
C           -5.63956448139571        0.64061189166294       -0.84282717168967
C           -4.83042085457296        1.75165402308869       -0.42593186543890
C           -4.96648640878248        3.13002746739301       -0.53489549696290
C           -3.98716773972047        3.93762499786072        0.00850582491267
C           -2.89052052882215        3.38801743649818        0.67028479378145
C           -2.73392378544448        2.02069879211102        0.79239479240233
C           -3.70090739279772        1.20262867935426        0.22463641363772
C           -3.25965702566125       -2.05510350184031        1.65527487666993
H           -2.63420093398345       -3.69084339750861        2.87588221333742
H           -0.25480208329577       -3.46019217388998        2.29691640936991
H            1.21836191449477       -3.75920410736108        0.41075619284775
H            3.54724629358297       -3.50551952070699       -0.17029756866530
H            5.33168045801036       -3.28811959824762       -0.82279111694033
H            7.65025416465986       -3.02272150607392       -1.46896623260295
H            8.67802620113231       -0.76819653411513       -1.50380119595047
H            7.36737152960079        1.17199560050782       -0.89166879908032
H            6.37115520439210        2.67751212030927       -0.27169907727208
H            5.03720567902631        4.62392946674700        0.26651026178132
H            2.61906324950074        4.37575790870514        0.75170617053392
H            1.59737448541685        2.18369122624842        0.72808534692936
H            0.82469923267917        0.45057290813079        0.78922590307667
H           -1.21004814230068       -0.18149476706215       -0.27522230856007
H           -4.93605720835145       -2.68374838959523       -0.41976490407694
H           -7.08131731244421       -2.83621276081756       -1.62407528655302
H           -8.28922192070588       -0.82069574067134       -2.31686089749005
H           -7.36863928371851        1.42562644067493       -1.84787672592712
H           -5.82458483457422        3.55737410348022       -1.03223410745842
H           -4.07287792432409        5.01174095647512       -0.06916227962310
H           -2.14949419751505        4.04622899073099        1.10060576051958
H           -1.89380329173429        1.60248651816642        1.32608576201418
H           -4.30107969986145       -2.13743330992317        1.92762491276940
