  60
        -91.79151969
 C         -2.2111845491       -3.2231248229        1.8435745162
 C         -0.8785915667       -3.0273079156        1.5302382828
 C         -0.4867983568       -1.9263074175        0.7712063119
 C          0.9259456976       -1.6954199526        0.4409859330
 C          1.7736068328       -2.7526535642        0.1015012952
 C          3.0928481162       -2.5125592121       -0.1894497418
 C          3.6399333069       -1.2214095508       -0.1624258133
 C          5.0444060171       -0.9801102450       -0.4319784341
 C          5.9279150845       -2.0309218595       -0.7174084145
 C          7.2648344363       -1.8128335212       -0.9472098833
 C          7.7686904024       -0.5193860686       -0.8934246863
 C          6.9232463800        0.5289452942       -0.6197188706
 C          5.5538373006        0.3360977053       -0.3898345215
 C          4.6641504123        1.4511927687       -0.1173051310
 C          5.1236264744        2.7757036349       -0.1237015879
 C          4.2860891133        3.8364015486        0.1252927427
 C          2.9420209984        3.6042890641        0.3855603371
 C          2.4646067530        2.3158362670        0.3941128490
 C          3.2989215268        1.2154568966        0.1518266288
 C          2.7859949729       -0.1431300580        0.1541485397
 C          1.4485998172       -0.4156780417        0.4590555389
 C         -1.4594575071       -1.0367675902        0.3281118528
 C         -2.7965069205       -1.2267551875        0.6529565378
 N         -3.7514995121       -0.2988444096        0.2153921187
 C         -4.9252599963       -0.5870411674       -0.4496855847
 C         -5.4274397562       -1.8116400269       -0.8661844005
 C         -6.6294729107       -1.8176803114       -1.5473174034
 C         -7.3179592536       -0.6372267726       -1.8192086718
 C         -6.8123615979        0.5859749858       -1.4271202423
 C         -5.6056962091        0.6182023441       -0.7405151698
 C         -4.7955692866        1.6810334643       -0.2149065949
 C         -4.9370424062        3.0619774693       -0.1744270991
 C         -3.9555042258        3.8103114773        0.4439710910
 C         -2.8512592587        3.1975078313        1.0326416372
 C         -2.6889328273        1.8258544820        1.0061352241
 C         -3.6591076306        1.0698577573        0.3631855455
 C         -3.1745646714       -2.3270467285        1.4164391603
 H         -2.5027955029       -4.0752376092        2.4395599216
 H         -0.1328701805       -3.7181353227        1.8937106050
 H          1.3843460218       -3.7587477613        0.0514668209
 H          3.7110017415       -3.3568892799       -0.4470944095
 H          5.5674422113       -3.0457685774       -0.7580804404
 H          7.9198251778       -2.6436757754       -1.1644068080
 H          8.8190523278       -0.3371227921       -1.0654615538
 H          7.3448974448        1.5199015963       -0.5813360894
 H          6.1584838332        2.9892649503       -0.3338179120
 H          4.6711311019        4.8450106958        0.1126716218
 H          2.2733483823        4.4308329560        0.5752141577
 H          1.4144534069        2.1702867832        0.5865077651
 H          0.7899424606        0.3867107311        0.7460411562
 H         -1.1838741162       -0.2034489399       -0.3003457603
 H         -4.8923361642       -2.7297215025       -0.6757905625
 H         -7.0429981508       -2.7584296931       -1.8796522321
 H         -8.2556327320       -0.6845715597       -2.3526180964
 H         -7.3381696486        1.5018698799       -1.6510733095
 H         -5.8012393754        3.5357775067       -0.6149753025
 H         -4.0453725874        4.8855334404        0.4843123186
 H         -2.1088389608        3.8082289126        1.5252989903
 H         -1.8426545298        1.3572194506        1.4857046047
 H         -4.2116434350       -2.4641692716        1.6821700605
