  108
       -167.51842484
 C         -4.1436054235        4.4529740377        0.2381529930
 C         -2.6753769362        4.1661448572        0.1415643179
 C         -2.2079916247        2.8685978005        0.0908346262
 C         -0.8378119359        2.5809397237        0.0488937840
 C         -0.3786934893        1.2153206921        0.0032237787
 N          0.9367281119        0.9762120225       -0.0348498420
 C          1.3425902374       -0.2954872148       -0.0786248757
 C          2.7560012039       -0.5813410439       -0.1060709787
 C          3.2133905103       -1.9050651266       -0.1414084541
 C          4.5624871680       -2.1640572557       -0.1688930310
 C          5.4845230505       -1.1170791393       -0.1616897547
 N          6.8599585745       -1.4191996433       -0.1939412194
 C          7.7321069616       -1.1168736524       -1.2126859458
 C          7.4772254805       -0.5066384967       -2.4334581647
 C          8.5411047397       -0.3298872266       -3.2970765141
 C          9.8251446770       -0.7561864412       -2.9637389192
 C         10.0787321481       -1.3881363690       -1.7604032509
 C          9.0273761677       -1.5775811792       -0.8754223634
 C          8.9113172390       -2.2000594977        0.4154556412
 C          9.8100886383       -2.8272544718        1.2659843546
 C          9.3450203057       -3.3254491121        2.4690907875
 C          8.0055257929       -3.1995555253        2.8321812224
 C          7.0908104155       -2.5775150924        2.0043756591
 C          7.5513796121       -2.0854261616        0.7908788985
 C          5.0498010403        0.2150259081       -0.0981663629
 C          6.0358760161        1.3410556436       -0.0152050784
 C          3.6915109800        0.4600631286       -0.0794554132
 N          0.4769924813       -1.3142125110       -0.0980205103
 C         -0.8284667162       -1.0304621675       -0.0437929774
 C         -1.7767067977       -2.1172587535       -0.0377367085
 C         -1.3357410138       -3.4461140620       -0.0887308613
 C         -2.2489427549       -4.4727311279       -0.0815129539
 C         -3.6165567695       -4.2033484150       -0.0232258517
 N         -4.5247111337       -5.2800865652       -0.0184975938
 C         -4.6303228496       -6.2272515530        0.9733534079
 C         -3.9176222470       -6.3365661499        2.1594839688
 C         -4.2333522062       -7.3847589206        3.0024269973
 C         -5.2350242072       -8.2986609343        2.6808574163
 C         -5.9547837406       -8.1870684546        1.5055650065
 C         -5.6556752280       -7.1445136664        0.6405293891
 C         -6.1769281717       -6.7230091445       -0.6314212515
 C         -7.1624594239       -7.2121418031       -1.4763721196
 C         -7.3923760424       -6.5587509741       -2.6729577035
 C         -6.6438458959       -5.4420378216       -3.0393732997
 C         -5.6571232810       -4.9351056285       -2.2157555877
 C         -5.4411091546       -5.5715777840       -1.0009124525
 C         -4.0796113375       -2.8815646337        0.0555391664
 C         -5.5433663516       -2.5883093486        0.1931085018
 C         -3.1510688289       -1.8604668490        0.0384823325
 N         -1.2789480225        0.2261098805        0.0108281574
 C          0.0790064581        3.6406116505        0.0682501564
 C         -0.3719537817        4.9376883647        0.1116723940
 C         -1.7397837442        5.2112810082        0.1353601453
 N         -2.1670907674        6.5531057444        0.1795195088
 C         -2.8594751987        7.2164042556       -0.8054277552
 C         -3.2534022767        6.7638615748       -2.0575132183
 C         -3.9343182529        7.6463161540       -2.8739140469
 C         -4.2104263872        8.9490988660       -2.4638391034
 C         -3.7977558822        9.4122038782       -1.2281652869
 C         -3.1121959020        8.5456818568       -0.3893807806
 C         -2.5237481654        8.6792030991        0.9156247673
 C         -2.4372638970        9.7180512610        1.8310340069
 C         -1.7812828167        9.4928693331        3.0272176916
 C         -1.2210319827        8.2508579616        3.3197303676
 C         -1.2951135993        7.1995010311        2.4264194519
 C         -1.9438662536        7.4243476136        1.2200057219
 H         -4.5420570271        4.7826930793       -0.7214024980
 H         -4.6828346032        3.5597443830        0.5428554088
 H         -4.3337151653        5.2439761637        0.9626423990
 H         -2.9009084295        2.0410131528        0.0965572159
 H          2.4906432178       -2.7052578577       -0.1522455358
 H          4.9291396672       -3.1798890856       -0.2065016030
 H          6.4780415148       -0.1976905113       -2.7020208996
 H          8.3738862442        0.1438759395       -4.2530939062
 H         10.6309442071       -0.5983025486       -3.6649893853
 H         11.0717066768       -1.7328285338       -1.5140875211
 H         10.8500283899       -2.9218438923        0.9919742659
 H         10.0291573747       -3.8185861816        3.1434912537
 H          7.6766676180       -3.5953612714        3.7815863142
 H          6.0539870898       -2.4738064055        2.2870889066
 H          5.5502752981        2.2399908765        0.3556037682
 H          6.8583130071        1.0838744541        0.6510341582
 H          6.4614980024        1.5616958182       -0.9940910998
 H          3.3230822280        1.4734381556       -0.0294567667
 H         -0.2764179894       -3.6412637139       -0.1390341729
 H         -1.9229231566       -5.5018412768       -0.1304609801
 H         -3.1459060726       -5.6243891059        2.4103688219
 H         -3.6939330471       -7.4981017967        3.9310606382
 H         -5.4517332616       -9.1048481069        3.3657979245
 H         -6.7339406381       -8.8941220473        1.2637084332
 H         -7.7327413856       -8.0876390782       -1.2047139598
 H         -8.1567207486       -6.9232391317       -3.3429948492
 H         -6.8364033098       -4.9662637765       -3.9896115549
 H         -5.0611703354       -4.0843195902       -2.5106905029
 H         -6.0124072862       -3.2877900730        0.8842222144
 H         -5.6915193082       -1.5764290890        0.5617612401
 H         -6.0534435330       -2.6810462851       -0.7658212435
 H         -3.4732034207       -0.8321271036        0.1004383056
 H          1.1334991643        3.4164988551        0.0437975492
 H          0.3239897537        5.7644087549        0.1187466443
 H         -3.0195128226        5.7616610594       -2.3845365326
 H         -4.2553303852        7.3220747694       -3.8528045641
 H         -4.7463336541        9.6084576528       -3.1302360940
 H         -3.9984242682       10.4278214815       -0.9219086151
 H         -2.8747529848       10.6803340100        1.6115597274
 H         -1.7020930811       10.2898830976        3.7514895766
 H         -0.7201043509        8.1074902483        4.2656214395
 H         -0.8668177562        6.2348969854        2.6540653065
