55
 energy: -101.749369021277 gnorm: 0.000071400442 xtb: 6.7.1 (edcfbbe)
C           -4.60335023613329        5.79427294168912        0.00831517796236
C           -3.14505221021417        5.46465663601071        0.00350869598493
C           -2.67596741367642        4.16374933880273        0.00183787623135
C           -1.30426750108522        3.88028298075753       -0.00107565767427
C           -0.84607817815542        2.51085730167470       -0.00295372397330
N           -1.75931355707458        1.52822702234525       -0.00443022771530
C           -1.37847710284771        0.27722965384321       -0.00787983735569
N           -2.21522702999970       -0.72766046982182       -0.00778284213326
C           -1.75534806759807       -1.98778337598465       -0.01102207654662
C           -2.71082141185124       -3.07044263284620       -0.00529664176878
C           -4.08441480733056       -2.80025690331189        0.00080008881443
C           -4.98907386955239       -3.84054848503438        0.00904937763592
C           -4.51655867096137       -5.14201698461320        0.01188567333978
F           -5.41499178900979       -6.15225353917226        0.02051466447658
C           -3.15702990447647       -5.45781607442597        0.00543440880349
C           -2.70902778278406       -6.88425099498082        0.01360580418832
C           -2.26741911470581       -4.39907949956995       -0.00358033212386
N           -0.44776655701901       -2.28712606063769       -0.01672080359594
C            0.44514382797846       -1.33186439237935       -0.01599959924210
N            1.73369948867555       -1.55414023647673       -0.01773375517002
C            2.59518308676891       -0.52593430290898       -0.01032858922820
C            4.01050090687553       -0.81253474391425       -0.00658398624536
C            4.46330966599921       -2.13710961964571       -0.02371096734032
C            5.81646653891567       -2.40096844598557       -0.01818462408371
C            6.70755613090581       -1.34152553506515        0.00495872695174
F            8.03161264181082       -1.61473193801506        0.01111147109948
C            6.30137192708596       -0.00637641466885        0.02351849619829
C            7.31337769319859        1.09400829555305        0.04523536924311
C            4.93976134832727        0.23526817297855        0.01690027941008
N            2.20071903198349        0.75618085710629       -0.00432655690666
C            0.92688811112280        1.05174235470610       -0.00590745807889
N            0.47516240010892        2.27881457684904       -0.00256118639001
N           -0.00216472380734       -0.00091843164509       -0.01140720991644
C           -0.38137941471110        4.93300547615377       -0.00249912399559
C           -0.82692592292641        6.23765926568341       -0.00129147258443
C           -2.18967901008120        6.48221478585832        0.00173800977435
F           -2.61296645215395        7.76619229567807        0.00288154167827
H           -4.85158302578683        6.40540438858784       -0.85834510019955
H           -4.85232367225167        6.37274705133757        0.89705284051745
H           -5.20187532773889        4.88902790734343       -0.00818588900955
H           -3.36901293564333        3.33634225527417        0.00287332476666
H           -4.41537103559023       -1.77402436612515       -0.00091051516297
H           -6.05262539847878       -3.66169686282518        0.01369376522217
H           -3.16162580655246       -7.42504002042311       -0.81613350659657
H           -1.62815763118807       -6.94750632003620       -0.06231388732616
H           -3.03127260274991       -7.37030494324458        0.93381756399595
H           -1.20389861256503       -4.58308860492797       -0.00889116228929
H            3.74048026219399       -2.93698903055742       -0.04106224186234
H            6.19292623872109       -3.41154159104166       -0.03102913392823
H            7.90239566462797        1.07584564217803       -0.87107080071352
H            8.00150095410061        0.95479793580990        0.87753775564225
H            6.82798432981431        2.06046783144344        0.13679769139812
H            4.56774644050986        1.24837945152150        0.03075601109275
H            0.67236218609948        4.70429216794916       -0.00476049972785
H           -0.13824052676030        7.06761358403810       -0.00261624440395
