55
 energy: -101.822611250526 gnorm: 0.000030608435 xtb: 6.7.1 (edcfbbe)
C            3.34858308607800        6.57532985437680       -0.00364792532935
C            1.98511223154019        5.96298808566603       -0.00946701694441
C            1.78239540487006        4.59334709102893        0.00155090545583
C            0.49588198809383        4.04786865842544       -0.00540461813054
C            0.31855018083549        2.60024184464889        0.00375261892652
N            1.41966470863822        1.84937826661165        0.01438650663283
C            1.26879854249220        0.53874480088406        0.01534054616403
N            2.31657157518120       -0.26269401541050        0.02100374013100
C            2.09198295048036       -1.57657676383026        0.01357989205997
C            3.25786918110676       -2.45292871955610        0.01085191005167
C            4.54373847548281       -1.90859506096967        0.03505752410281
C            5.64199995229461       -2.74444264272405        0.02950112650251
C            5.44145952450568       -4.11368680148223       -0.00252041563510
F            6.52321970319053       -4.91976109672459       -0.00879232155216
C            4.17501726397458       -4.69859206424040       -0.02739313565969
C            4.02468803039321       -6.18516574824615       -0.06781197530251
C            3.08897673170847       -3.83965533808561       -0.01911464973723
N            0.89121015335671       -2.15497351261285        0.00614488792592
C           -0.16848650455777       -1.36891540467628        0.00547596985520
N           -1.38649345818980       -1.87557094260480        0.00223499978931
C           -2.41203239721027       -1.02400214382737        0.00135585072812
C           -3.75412742134787       -1.59507625506740        0.00106200065155
C           -3.92644912834723       -2.98096302785332        0.00114757816865
C           -5.19993696647849       -3.51312777940373        0.00157977559362
C           -6.28514544973188       -2.65391369521034        0.00182315731981
F           -7.52454595461624       -3.18665495370149        0.00255054317052
C           -6.15766778537915       -1.26450765473633        0.00176857131577
C           -7.36998458897937       -0.39027989688245        0.00092749898915
C           -4.87040900152398       -0.75449294728396        0.00136502789627
N           -2.31246673740823        0.30513275516463        0.00041105932409
C           -1.10189197639822        0.82979708865138        0.00264594032146
N           -0.93171110059290        2.13802301918146       -0.00057703276825
N           -0.00057901327087       -0.00014832003818        0.00781203259011
C           -0.61768300294504        4.89040295178532       -0.02351870719025
C           -0.44100590822587        6.25918643248343       -0.03489793644233
C            0.84603237360345        6.76853881766029       -0.02792530129135
F            1.00526389689633        8.10813517683527       -0.03928497237460
H            3.46026206292989        7.23179103517519        0.85807945716545
H            3.48871146966583        7.18325115531149       -0.89641779331252
H            4.11390446699362        5.80658722808482        0.02936243744003
H            2.62402848698712        3.91832187653277        0.01571416757007
H            4.65786296534614       -0.83703052996536        0.05809963719194
H            6.64717007337845       -2.35425827492066        0.04862352957269
H            4.43204933413107       -6.57449130810509       -1.00013396756341
H            4.58305854806395       -6.64201860468690        0.74758656653940
H            2.97939434632148       -6.46695844454680        0.00825355586650
H            2.08419287428497       -4.23241559468421       -0.03670115901910
H           -3.05591653580535       -3.61664093433140        0.00102438976043
H           -5.36532921105583       -4.57875884138808        0.00184794981966
H           -7.08708960836743        0.65724193017417        0.02190575690773
H           -7.99219469788538       -0.61275818369994        0.86654152719615
H           -7.96828884807368       -0.58278324910236       -0.88858226977383
H           -4.70743748471366        0.31208482579761        0.00126609590578
H           -1.60346587184312        4.45444305504362       -0.02869288699314
H           -1.28058230796133        6.93582608052828       -0.04919949965582
