55
 energy: -101.822640649741 gnorm: 0.000045043506 xtb: 6.7.1 (edcfbbe)
C            3.97247069344145        5.83435803811822       -0.01785011349789
C            2.53903238257761        5.41126610693895       -0.00506534093113
C            2.15430647470088        4.08117728654568       -0.00610444623147
C            0.80634158596645        3.71306381696324        0.00028363092379
C            0.43627524954576        2.30231232521880       -0.00128573409843
N            1.42655871372342        1.41011252399088       -0.00058565706001
C            1.10050285590481        0.13171659317159       -0.00142489859233
N            2.03111747169761       -0.80342981032453        0.00040974784956
C            1.63165577659556       -2.07511048267551       -0.00074971313130
C            2.66725776414971       -3.10204118945517        0.00208748827203
C            2.31417277123545       -4.45312889111068        0.00477913544844
C            3.30026123716802       -5.41885466930917        0.00730847023837
C            4.62635136607441       -5.02199589335183        0.00634869246170
F            5.58068739839810       -5.97555076939988        0.00845075147624
C            5.02232793838420       -3.68410031941278        0.00396690461967
C            6.47216362049051       -3.32061987826274       -0.00027076706986
C            4.01520996340986       -2.73391308072377        0.00214224894775
N            0.36396222150211       -2.48665337265660       -0.00452280662458
C           -0.58025401985977       -1.56531141442559       -0.00605666126609
N           -1.85539931120790       -1.90327418319897       -0.00866985055893
C           -2.75695386662259       -0.92154625133231       -0.00771004645183
C           -4.16364055595609       -1.30697532427310       -0.00691939163354
C           -4.52040986889752       -2.65712805233190       -0.01342595480681
C           -5.85374605236709       -3.01369403851608       -0.01052256770957
C           -6.81365565727693       -2.01647127721366        0.00021418041945
F           -8.11333994390747       -2.37813699284268        0.00359777800088
C           -6.50084973368293       -0.65679974501420        0.00664580971871
C           -7.58493626037954        0.37210978617183        0.02229700703306
C           -5.15680323228436       -0.32406056966755        0.00228170374313
N           -2.47956873271151        0.38216889634671       -0.00603602299867
C           -1.20943059469552        0.73896575412847       -0.00455296617539
N           -0.86474847958655        2.01236779753473       -0.00302422379190
N           -0.22971854372194       -0.23149367144425       -0.00407022905269
C           -0.18410375822496        4.69755722027980        0.00867839141047
C            0.17461006166765        6.03029959195684        0.01081511832242
C            1.51833400660804        6.36246033320622        0.00362724307915
F            1.85553176841955        7.66868394456641        0.00582294228654
H            4.17328456620204        6.50650104056217        0.81481478684422
H            4.19138625514537        6.37868070936177       -0.93569868952213
H            4.62730122981859        4.97155860096452        0.04913040588497
H            2.89794131262177        3.29942132940359       -0.01209704784685
H            1.26993423009737       -4.72065562846334        0.00513360283538
H            3.05950206383823       -6.47006938411209        0.00974226180196
H            6.97729096163398       -3.78301407548610        0.84631489852753
H            6.94709920911078       -3.69446425827163       -0.90644340088550
H            6.59744860534048       -2.24383146587765        0.04996045022263
H            4.25802062815302       -1.68262437480867        0.00066966032376
H           -3.74282825927429       -3.40365312930710       -0.02064677743365
H           -6.16058504433492       -4.04754510452073       -0.01574440567424
H           -7.16596339643584        1.37138070850064       -0.03831944312603
H           -8.16839249107282        0.28389341960322        0.93793481506751
H           -8.26468449049987        0.21372532604169       -0.81338524147836
H           -4.85208413391026        0.71099934904216        0.00641677091760
H           -1.21953291583535        4.39788055273508        0.01359772428279
H           -0.56671304088474        6.81348524644538        0.01770877669801
