  55
       -101.76990596
 C          3.3456979473        6.5669345522       -0.0492537436
 C          1.9800635784        5.9568460735       -0.0247000724
 C          1.7793992094        4.5877359146       -0.0074537045
 C          0.4932860182        4.0463267355        0.0112855487
 C          0.3164310760        2.5994049283        0.0230400942
 N          1.4180495611        1.8517853723        0.0281407960
 C          1.2761997323        0.5417891212        0.0293753069
 N          2.3182387944       -0.2645141292        0.0318985710
 C          2.0925176069       -1.5765766526        0.0236288372
 C          3.2584713431       -2.4515628963        0.0164955341
 C          4.5414445643       -1.9047686548        0.0414353009
 C          5.6400677456       -2.7398383026        0.0313013228
 C          5.4415198523       -4.1088812993       -0.0057819049
 F          6.5257520236       -4.9158001616       -0.0172115358
 C          4.1756382111       -4.6916652045       -0.0313410086
 C          4.0254153199       -6.1793332283       -0.0763541441
 C          3.0878684704       -3.8361847625       -0.0182762247
 N          0.8943625265       -2.1571050460        0.0174821068
 C         -0.1694504486       -1.3794029663        0.0195838353
 N         -1.3889203692       -1.8784790975        0.0152693050
 C         -2.4121546764       -1.0266305744        0.0153580489
 C         -3.7537800918       -1.5968025619        0.0062361575
 C         -3.9249945386       -2.9810243072       -0.0045683864
 C         -5.1991064545       -3.5113153805       -0.0160629755
 C         -6.2836377355       -2.6516330511       -0.0166593639
 F         -7.5260544047       -3.1836532974       -0.0289624340
 C         -6.1520937711       -1.2640615491       -0.0055205286
 C         -7.3634141704       -0.3863066572       -0.0085114541
 C         -4.8658914127       -0.7534876189        0.0061315697
 N         -2.3155407114        0.3012215062        0.0205636155
 C         -1.1101282816        0.8334253782        0.0241183969
 N         -0.9328251991        2.1390942885        0.0243272378
 N         -0.0011667651       -0.0014250493        0.0245834287
 C         -0.6199479085        4.8866276443        0.0143818669
 C         -0.4424507110        6.2551371943       -0.0013560961
 C          0.8441026830        6.7645285986       -0.0211387534
 F          1.0043460307        8.1064871223       -0.0376175027
 H          3.4762567085        7.2347393688        0.8013538988
 H          3.4760699330        7.1610351128       -0.9532186132
 H          4.1102424158        5.7966659848       -0.0180188940
 H          2.6199946083        3.9114766190       -0.0092011253
 H          4.6521250301       -0.8331664850        0.0687227071
 H          6.6459155461       -2.3506735292        0.0501497873
 H          4.4505991224       -6.5716515467       -0.9995827690
 H          4.5635876639       -6.6389543151        0.7513328888
 H          2.9782997131       -6.4610078696       -0.0219115262
 H          2.0830149228       -4.2284915336       -0.0363171889
 H         -3.0536007865       -3.6154812878       -0.0047892040
 H         -5.3677120268       -4.5766942762       -0.0250194653
 H         -7.0783791427        0.6608967904        0.0203961726
 H         -7.9930386060       -0.6088628285        0.8518006135
 H         -7.9578738677       -0.5685547192       -0.9029219327
 H         -4.7005301770        0.3126574624        0.0148138180
 H         -1.6047313436        4.4492005629        0.0289689765
 H         -1.2808236096        6.9337984486        0.0011260235
