68
 energy: -95.880004036926 gnorm: 0.000043115965 xtb: 6.7.1 (edcfbbe)
C           -3.56644830624502       -1.73566385530035       -2.18650634148916
C           -3.72119177889480       -1.65608434280500       -0.66488457518528
C           -3.11575594153870       -2.89557162346155        0.00102614557159
C           -5.17029346625852       -1.47414031901646       -0.27122365067462
C           -6.23940828652738       -2.31219270659926       -0.50011774495009
C           -7.49577189942902       -1.93653129717478       -0.04220677971752
C           -7.67549743334935       -0.73948679918644        0.63296009435635
C           -6.60618060440002        0.10980818514253        0.86677449149164
C           -5.35163222252023       -0.26205214221257        0.41212978025591
C           -4.06744496043188        0.40883148805303        0.50795983212083
C           -3.70616564395184        1.61774115410196        1.08119230224811
C           -2.38313650683439        2.01421686009260        1.03467850284917
C           -1.41680026612235        1.22131368294244        0.41218032660839
N           -0.07938302416254        1.63128835207430        0.37786027097109
C            0.23964502806003        2.98102111129555        0.20376662259281
C           -0.53498743033428        3.79003768740333       -0.62802273455856
C           -0.21691543561782        5.12350659345493       -0.79548894582113
C            0.87878268909689        5.67134734502322       -0.14862358413556
C            1.65407498652258        4.87171949268560        0.67530569446806
C            1.33893580743231        3.53950728615087        0.85693322795062
C            0.93961382002019        0.68418161391329        0.52603427137152
C            0.77803365575239       -0.38960457045201        1.40481814432095
C            1.77305858610348       -1.33482813955571        1.56442780535873
C            2.95017944075451       -1.20114517075009        0.84523615935964
C            3.11739554765509       -0.12369341726605       -0.03794304521684
C            2.12439947369138        0.81068431602125       -0.20688141750356
C            4.47202853709949       -0.18463311550189       -0.70680987376901
C            5.30848539636615        1.05070093600473       -0.35984962233412
C            4.33498150807645       -0.32975772200614       -2.22531121215265
C            5.05761341920137       -1.43499534203883       -0.08870737984333
C            6.28909942360284       -2.01209645992727       -0.30804603216943
C            6.61757168007621       -3.17306415814165        0.38016313506384
C            5.72434008328528       -3.74520799122697        1.27227373518038
C            4.48332571314574       -3.17233190928139        1.49814101361752
C            4.15283413011439       -2.01396605093541        0.81409544204691
C           -1.78555875051576        0.00580432947850       -0.17375308534370
C           -3.09912664739095       -0.39188504797801       -0.11664145959462
H           -2.51467217044422       -1.79699028398988       -2.45638491112431
H           -3.99512779846331       -0.85168221338795       -2.65410359332818
H           -4.07720208194399       -2.61467170127420       -2.57268061879970
H           -3.61005377386231       -3.79605323801791       -0.35596632411847
H           -2.05446075231845       -2.96591049058932       -0.22675606796679
H           -3.23664402354738       -2.83805954189058        1.08081437080205
H           -6.11090010452318       -3.24777773384974       -1.02533834335550
H           -8.34259477435285       -2.58494839483139       -0.21418425659882
H           -8.66154550706811       -0.46670169010510        0.98051572919721
H           -6.74888791132219        1.04205237268410        1.39308359450011
H           -4.44107879206422        2.23981466209651        1.56978695622845
H           -2.08191762541432        2.94652286922210        1.48975814261109
H           -1.38380164116361        3.36348156818986       -1.14226131251470
H           -0.82486909236855        5.73762656781490       -1.44366344329118
H            1.12622898784192        6.71315138919039       -0.28497696558970
H            2.50700200131655        5.29095759746955        1.18887972000693
H            1.93900424634878        2.92193186898146        1.50919218990360
H           -0.13989766259664       -0.47090470130177        1.96850258175141
H            1.63429669941493       -2.15673469691209        2.25080491676883
H            2.24130867436408        1.63674835408065       -0.89322807866938
H            4.83097566875359        1.94965205111296       -0.74336216291179
H            5.40993688184352        1.14400362912555        0.71945378348722
H            6.30142812416969        0.96959917721501       -0.79586963127173
H            3.84875274421905        0.54731514657712       -2.64626225684100
H            3.73910454293930       -1.20770325721106       -2.46621318174390
H            5.31480386891613       -0.43901539034338       -2.68424941470202
H            6.99344315619058       -1.57478223303327       -1.00109628119389
H            7.58056124541252       -3.63522716203483        0.21843161844937
H            6.00038528729293       -4.64839616182855        1.79720845919912
H            3.78905081985829       -3.61995825700789        2.19390573589006
H           -1.03533355892762       -0.60011435914002       -0.66067646811527
