68
 energy: -95.790405574450 gnorm: 0.000077724166 xtb: 6.7.1 (edcfbbe)
C           -1.99585252446856       -3.03052440559180        0.52881474462081
C           -2.93092418284683       -1.90671809567565        0.98802456962981
C           -2.96074391622423       -1.83276282318012        2.51845666780921
C           -4.32328356560889       -2.08125290573568        0.42322230264043
C           -5.20569947391979       -3.11194779678355        0.61071358662294
C           -6.45579136419744       -3.05769111731294       -0.00966839569848
C           -6.80412445321792       -1.97048662696760       -0.80952670268754
C           -5.93072298316265       -0.92596304904824       -1.01073655998489
C           -4.66975131472596       -0.97014438276635       -0.39404299981667
C           -3.58505516328647       -0.06287723751293       -0.42186049304382
C           -3.41659021081787        1.18315991102073       -1.07003396142903
C           -2.25036662885211        1.87064341638486       -0.90871978809813
C           -1.19337122559676        1.35482148130564       -0.11172037743449
N           -0.00307900646787        2.04229090694789        0.00240097729835
C           -0.00359243385918        3.44245974285113        0.00153054387382
C            1.00604491999215        4.14635137147667       -0.65736548595991
C            0.99848868734284        5.52664500580589       -0.65725933111711
C           -0.01001242457385        6.22240083381261       -0.00747547865127
C           -1.01508169141762        5.52629603229801        0.64716295748780
C           -1.01644742474644        4.14599498558169        0.65587342975026
C            1.19266917032770        1.35595982580816        0.11776465227276
C            2.23771419613843        1.86639467482621        0.92336010422385
C            3.40928100280349        1.17872573411024        1.08332118259518
C            3.57995054890291       -0.05567707152228        0.42999087378305
C            2.53102207964612       -0.56932149950071       -0.38314302317173
C            1.36230572193101        0.10949879486303       -0.53891295113048
C            2.94196224342679       -1.89146898662859       -0.99163229669040
C            2.97610237774902       -1.81071800538518       -2.52131880372844
C            2.00661752695341       -3.01753160923898       -0.53902362759126
C            4.33243135757556       -2.06734156042750       -0.42266442626533
C            5.21856762820884       -3.09678300673619       -0.61575700538586
C            6.46322278679725       -3.04502487414047        0.01076363105469
C            6.80481654525273       -1.96621786170319        0.82060577970818
C            5.92530544286131       -0.92411074434373        1.02549349124475
C            4.67358343117814       -0.96775599254053        0.40252975294931
C           -1.35790539874119        0.09654133242095        0.53642444051715
C           -2.52302532562799       -0.58103869964064        0.38475738117634
H           -2.33970415404988       -3.98848939402271        0.91163727813671
H           -0.98532061616142       -2.85319278322954        0.89029043062122
H           -1.97557839091969       -3.08038708567171       -0.55810356148942
H           -3.32296645139076       -2.77014827323606        2.93402194974574
H           -1.96334180468802       -1.64072895950891        2.90781755712368
H           -3.62190656196741       -1.03166655124263        2.84234914652959
H           -4.94970534083775       -3.96015069058840        1.22988080651984
H           -7.15936350469966       -3.86410548628392        0.13289757549657
H           -7.77830599611880       -1.95261021249131       -1.27766451965671
H           -6.20331589376062       -0.08575617346230       -1.63194456666669
H           -4.20343518843192        1.57514202351849       -1.69610430232986
H           -2.09489586160352        2.80962614174327       -1.42077459010052
H            1.78064480186919        3.59987118005939       -1.17475609521139
H            1.77987640372235        6.06402343805977       -1.17335128240864
H           -0.01253295594019        7.30155682590244       -0.01110446863656
H           -1.79859865068155        6.06336760981596        1.16032549122400
H           -1.78792440033838        3.59900407191924        1.17736315978096
H            2.08020342296025        2.80218288686985        1.44050722342881
H            4.19250311838128        1.57131478197512        1.71368037299094
H            0.57310889068397       -0.25655143344280       -1.17904143020718
H            3.63735612884581       -1.00758038025924       -2.83995395766625
H            3.34033985521807       -2.74595665656725       -2.93988163918625
H            1.97961864833178       -1.61818416598573       -2.91266667478070
H            0.99654897580881       -2.83862830656680       -0.90093713818130
H            1.98487706089038       -3.07261847998967        0.54761462791416
H            2.35122088540319       -3.97352637103985       -0.92601764528224
H            4.96603539762771       -3.93963940580237       -1.24345298611502
H            7.16913982622785       -3.84907720716221       -0.13487190972896
H            7.77591540986487       -1.94875369823196        1.29487630037896
H            6.19340330039444       -0.08883369546404        1.65536978306345
H           -0.56392131214206       -0.27084847373731        1.16987378514805
