  68
        -95.88048978
 C         -2.0227155311       -2.9984030978        0.5970545932
 C         -2.9658629315       -1.8707995520        1.0288415599
 C         -3.0070248697       -1.7622471778        2.5557075209
 C         -4.3511318780       -2.0661726134        0.4534908063
 C         -5.2390282488       -3.0967239680        0.6707160864
 C         -6.4696252268       -3.0682252483        0.0272517389
 C         -6.8029572374       -2.0224405689       -0.8190694741
 C         -5.9164795963       -0.9815174710       -1.0427627729
 C         -4.6880511286       -1.0069624930       -0.4030832707
 C         -3.5761632008       -0.0738662176       -0.4405524601
 C         -3.4020803676        1.1179310860       -1.1260430128
 C         -2.2144172397        1.8095411674       -0.9805030027
 C         -1.2013425393        1.3322449904       -0.1458884869
 N         -0.0014774826        2.0395602131       -0.0144047960
 C         -0.0066269884        3.4380464057       -0.0040322422
 C          1.0278882667        4.1537223364       -0.6069783762
 C          1.0221072679        5.5345895028       -0.5882600391
 C         -0.0138368057        6.2245920137        0.0199447639
 C         -1.0465010327        5.5188800226        0.6154305969
 C         -1.0452895122        4.1378344419        0.6101800329
 C          1.2014642083        1.3385389917        0.1211650195
 C          2.2087364106        1.8188058209        0.9610849837
 C          3.3968578672        1.1297786293        1.1142112940
 C          3.5770543466       -0.0626697599        0.4315517820
 C          2.5667666247       -0.5506276201       -0.4111426929
 C          1.3920322556        0.1413286788       -0.5778341002
 C          2.9794886716       -1.8628542556       -1.0386915799
 C          3.0416017221       -1.7549543655       -2.5648666951
 C          2.0289789146       -2.9887797141       -0.6198410213
 C          4.3576003039       -2.0597277273       -0.4468252722
 C          5.2450442058       -3.0938092001       -0.6488137234
 C          6.4690028442       -3.0646559331        0.0071590487
 C          6.7965552981       -2.0146540457        0.8504085717
 C          5.9103633423       -0.9704386435        1.0591979810
 C          4.6883015226       -0.9968783243        0.4075406205
 C         -1.3843823860        0.1341907619        0.5535184960
 C         -2.5590513703       -0.5597450321        0.3951692720
 H         -2.3556454389       -3.9483640036        1.0084466155
 H         -1.0125619742       -2.8008643846        0.9487140660
 H         -2.0056630491       -3.0784297772       -0.4881210310
 H         -3.3629423475       -2.6929082056        2.9911658149
 H         -2.0140284756       -1.5524806211        2.9465228264
 H         -3.6765510695       -0.9596039753        2.8575381717
 H         -4.9894806883       -3.9171950249        1.3281712202
 H         -7.1753055709       -3.8700655894        0.1888841956
 H         -7.7658725214       -2.0199460841       -1.3092307202
 H         -6.1788116211       -0.1677013631       -1.7025518432
 H         -4.1744585257        1.4996363807       -1.7768586490
 H         -2.0567548231        2.7313763541       -1.5211904941
 H          1.8318699410        3.6182623401       -1.0904579950
 H          1.8290987632        6.0761763015       -1.0597072151
 H         -0.0161531593        7.3039627583        0.0300575343
 H         -1.8560396710        6.0479498580        1.0966429513
 H         -1.8464755056        3.5901834430        1.0846238977
 H          2.0454892743        2.7397342961        1.5015698464
 H          4.1642073530        1.5131661041        1.7698661158
 H          0.6156067763       -0.2217292839       -1.2352316345
 H          3.7171241826       -0.9538712242       -2.8571937233
 H          3.4014154759       -2.6866452588       -2.9950495912
 H          2.0544717613       -1.5427340213       -2.9689877606
 H          1.0248736818       -2.7913794174       -0.9884067152
 H          1.9942695567       -3.0661697669        0.4650205889
 H          2.3679398429       -3.9398763649       -1.0234904750
 H          5.0004985954       -3.9173276207       -1.3042409002
 H          7.1738576759       -3.8697121714       -0.1417251818
 H          7.7543497379       -2.0118359851        1.3503878867
 H          6.1677998498       -0.1533361314        1.7167687549
 H         -0.6031366989       -0.2272224098        1.2062101066
