68
 energy: -95.880501873338 gnorm: 0.000047857401 xtb: 6.7.1 (edcfbbe)
C           -2.02668065235936       -2.99915791865359        0.60574364243307
C           -2.97308266281996       -1.87242238911657        1.03206577823100
C           -3.02396965416060       -1.76503090582111        2.55876318127401
C           -4.35564695063659       -2.06760420113643        0.45007817136820
C           -5.24355805033326       -3.09968505673420        0.66011419519485
C           -6.47236106169048       -3.06900204982693        0.01325929805713
C           -6.80395850018699       -2.01966668608961       -0.82936810905313
C           -5.91728781502043       -0.97746786666996       -1.04620391836554
C           -4.69065407572014       -1.00512101226203       -0.40315623729602
C           -3.57882941871961       -0.07180014502336       -0.43447918867221
C           -3.40287738828695        1.12155526193736       -1.11671673169527
C           -2.21475820978511        1.81156960131067       -0.96810051315100
C           -1.20291133175708        1.33095413734617       -0.13383279933547
N           -0.00209226901935        2.03589257781599       -0.00097194220113
C           -0.00437388153499        3.43462668644729        0.00052730161031
C            1.02580631350488        4.14442661967869       -0.61631609518675
C            1.02097028503605        5.52547634827437       -0.60868671279689
C           -0.00912675688698        6.22091057175912        0.00318115377956
C           -1.03680409126506        5.52080676796464        0.61386643139160
C           -1.03688091030439        4.13977967630100        0.61890285662541
C            1.20087008712912        1.33457125291663        0.13198018159247
C            2.20978611651498        1.81631520389881        0.96911852567935
C            3.39906632954619        1.12867305472058        1.11949995432972
C            3.57923210743001       -0.06326917510740        0.43588900765354
C            2.56753134495909       -0.55223504358269       -0.40459058853402
C            1.39098249714250        0.13758636631485       -0.56740829217655
C            2.98162117879298       -1.86210484232505       -1.03618574178927
C            3.04003012774024       -1.74968611162362       -2.56231312477879
C            2.03479394953944       -2.99154796017431       -0.61827281195925
C            4.36182270239166       -2.05689516653763       -0.44848129612516
C            5.25130127684782       -3.08816869154761       -0.65581967484966
C            6.47732294353178       -3.05735547792032       -0.00371741783363
C            6.80469934904884       -2.00853169355760        0.84118642286135
C            5.91641923305177       -0.96712800988388        1.05531922915030
C            4.69243581590510       -0.99504697880912        0.40725738173137
C           -1.38834948222794        0.13193586567790        0.56334685812737
C           -2.56368634805550       -0.56029753440632        0.40209659876734
H           -2.36260521648746       -3.94995434635482        1.01277547125591
H           -1.01932470128541       -2.80207547096723        0.96562350442207
H           -2.00117651205875       -3.07704712923258       -0.47941277604908
H           -3.38274092412614       -2.69616296866513        2.99114780132481
H           -2.03343009402514       -1.55527667946281        2.95585777732771
H           -3.69565442780910       -0.96253395763320        2.85637048818257
H           -4.99576487198479       -3.92267212134083        1.31508358019359
H           -7.17786075313700       -3.87221854878927        0.16890409156143
H           -7.76555335690462       -2.01550461707332       -1.32211938454207
H           -6.17816032026502       -0.16073093363669       -1.70296703177805
H           -4.17409413296054        1.50558153898848       -1.76754431498206
H           -2.05548650632249        2.73439269003857       -1.50661298433639
H            1.82508840268897        3.60433726007706       -1.10251422843234
H            1.82374705623060        6.06274141453575       -1.09213107963295
H           -0.01102867655283        7.30033239529395        0.00416469072339
H           -1.84135646922728        6.05444308328113        1.09837671763015
H           -1.83420435912828        3.59598886367661        1.10418544961747
H            2.04708526544380        2.73783398957036        1.50884236625334
H            4.16779658915176        1.51327551169676        1.77292412838729
H            0.61303494074824       -0.22686620572769       -1.22236598706595
H            3.71194281630615       -0.94515837908060       -2.85387101686204
H            3.40253510168837       -2.67881792654131       -2.99588572943488
H            2.05119413174466       -1.54017621814797       -2.96375738740745
H            1.02902944347094       -2.79501745583182       -0.98287236421262
H            2.00371885498420       -3.07273705467534        0.46649345614416
H            2.37434341472982       -3.94059853897952       -1.02636836076089
H            5.00672773026470       -3.91069274209946       -1.31258146118325
H            7.18393893762754       -3.86003710332295       -0.15704148040775
H            7.76420126301855       -2.00416193207884        1.33800380023292
H            6.17403306225248       -0.15095905889702        1.71407380962446
H           -0.60806292324629       -0.23190145553938        1.21584672753100
