68
 energy: -95.790404256227 gnorm: 0.000156668319 xtb: 6.7.1 (edcfbbe)
C           -1.99955657588916       -3.02203766008665        0.55111677261392
C           -2.93632605200260       -1.89649904797019        1.00205099567008
C           -2.97227400945631       -1.81576707001998        2.53189925713439
C           -4.32648827081682       -2.07341856569090        0.43260819787099
C           -5.21023154472005       -3.10436456220003        0.62189518490291
C           -6.45641059900743       -3.05267472216142       -0.00368269689371
C           -6.80092008769379       -1.97045670551913       -0.80948721166426
C           -5.92487364950444       -0.92630115488192       -1.01128059457732
C           -4.67005609329274       -0.96900499211747       -0.38923793224353
C           -3.58101490359441       -0.05810939636437       -0.41561817693506
C           -3.41235501462322        1.18189048026226       -1.06580645581372
C           -2.24311634513570        1.86966171916608       -0.90608102566832
C           -1.19168043302355        1.35604105866638       -0.10631935830023
N            0.00339733568822        2.04036499372444        0.00360228665922
C            0.00682971625832        3.44064137376994       -0.00004982541101
C            1.01551915257393        4.13988455992514       -0.66519946992872
C            1.01467935491918        5.52022166965514       -0.66441950503045
C            0.01421046742754        6.22042870432045       -0.00710319072505
C           -0.98994678138112        5.52884411251524        0.65373165783636
C           -0.99811085644503        4.14853285898296        0.66157911202342
C            1.19493014431980        1.35114186559949        0.11384536465424
C            2.25207493991835        1.86405027769193        0.90802426633843
C            3.41963622767261        1.17391727220188        1.06456192270147
C            3.58283542277496       -0.06905283540654        0.41620049444952
C            2.52135117814739       -0.58437875818881       -0.38706065610856
C            1.35560208326448        0.09612235396514       -0.53623430766847
C            2.92451958396493       -1.91058408802656       -0.99207876821689
C            2.94709020865584       -1.83738241259568       -2.52250388336256
C            1.98989613187600       -3.03248742137375       -0.52743750564408
C            4.31877834923215       -2.08734437382300       -0.43278260845804
C            5.19983637976226       -3.11941303981083       -0.62598889642477
C            6.45089211707199       -3.06784335130862       -0.00948864157666
C            6.80238287854802       -1.98400300304651        0.79170808291229
C            5.92943031414503       -0.93854293524792        0.99765225411338
C            4.66929675536473       -0.98068252100978        0.38455468055093
C           -1.35907115418118        0.10489908944984        0.54773037163105
C           -2.52641011332324       -0.57332506827883        0.39481114507805
H           -2.34526929034208       -3.97843040042861        0.93617541684812
H           -0.99057777999876       -2.84355048348703        0.91627731218927
H           -1.97459572689164       -3.07618354855248       -0.53549547288711
H           -3.33494846135643       -2.75179565878792        2.95008803793594
H           -1.97666094844457       -1.62085900267526        2.92434014365878
H           -3.63572016950544       -1.01410388981839        2.84967821270482
H           -4.95625694552317       -3.94939103027175        1.24614588797186
H           -7.16066787268768       -3.85852410066235        0.13948404682709
H           -7.77264739310342       -1.95377225861308       -1.28260721654767
H           -6.19481021127773       -0.08915347632398       -1.63782968344593
H           -4.19796341042679        1.57448640502784       -1.69311109752558
H           -2.08717958170206        2.80715378993963       -1.42064524465411
H            1.78347450549720        3.58965546369120       -1.18848553681452
H            1.79475332204428        6.05408025676711       -1.18613157418481
H            0.01702851744907        7.29958834538697       -0.00991903481036
H           -1.76727218360829        6.06952350611607        1.17250555415341
H           -1.76917512671353        3.60508407895014        1.18738560106986
H            2.10067848575197        2.80336234695729        1.42065850325183
H            4.20912660533866        1.56580983626621        1.68740742826732
H            0.55991108682189       -0.26987951738558       -1.16829865135381
H            3.60857268509939       -1.03805297319255       -2.85009192377193
H            3.30490758303481       -2.77586178700702       -2.93936865346852
H            1.94825251070144       -1.64320022811457       -2.90706461327821
H            0.97822454083618       -2.85451602058267       -0.88530788839902
H            1.97373168644388       -3.08055142640264        0.55963135801734
H            2.33121821753972       -3.99144959922131       -0.90999904404147
H            4.94061878724885       -3.96542002283290       -1.24676475790960
H            7.15320190882362       -3.87473161401289       -0.15607307077623
H            7.77747585271741       -1.96779137605809        1.25790910720549
H            6.20481221204016       -0.10041106781457        1.62049012422565
H           -0.56732368569467       -0.26140473453206        1.18459514966030
