108
 energy: -167.598023918194 gnorm: 0.000168372135 xtb: 6.7.1 (edcfbbe)
C           -4.16124325103028       -4.27447494358665       -0.43680444203103
C           -2.69088857171536       -4.03400138091670       -0.28192275027086
C           -2.18881173893223       -2.74479554767722       -0.22682632222296
C           -0.82122595570905       -2.49945841507018       -0.13800379034698
C           -0.32516594587007       -1.12568794015016       -0.07834208118645
N            0.99050066766767       -0.93993253139988       -0.02298409163888
C            1.39815207738417        0.32484895250418        0.03723666588973
C            2.83565435998501        0.58089114558981        0.09887212622865
C            3.31440122632221        1.88631625891092        0.19283556871876
C            4.67193498767759        2.11171948920736        0.25998748781088
C            5.56738768137180        1.04520601931185        0.23212853130100
N            6.94476864843082        1.31173670578914        0.30915068171741
C            7.79876811059890        0.89810602933566        1.30842342671254
C            7.51432569484874        0.20299268431002        2.47490896644577
C            8.56338365574579       -0.07192685762691        3.33097108614004
C            9.86234040817087        0.34318397480306        3.04501967090488
C           10.14426688704708        1.06387737700882        1.90149555131296
C            9.10727422330490        1.35250291225956        1.02418562869923
C            9.02416560595432        2.08634345433198       -0.20801297146066
C            9.95438209926554        2.75595933213408       -0.99229793941079
C            9.52312575382397        3.36788452322426       -2.15242169882264
C            8.18587159037139        3.31275125296874       -2.54058598104077
C            7.24153071984159        2.65087566607997       -1.77974474856830
C            7.66830296527700        2.04642768623707       -0.60668911678191
C            5.10413904882367       -0.27040230190287        0.10378138634401
C            6.05720627916669       -1.42006914318095       -0.01268692857775
C            3.73650673337901       -0.47957770533703        0.04942832043130
N            0.57758572312596        1.37152014768448        0.04559960872781
C           -0.72146674006992        1.09388631435382       -0.01619367975091
C           -1.66210138258777        2.21254914592972       -0.01220620305318
C           -1.19825397489039        3.52197082409876        0.09906837154486
C           -2.09783511555406        4.56545264688840        0.11361104588302
C           -3.46551265546976        4.32086324658653        0.01449522572183
N           -4.35493448463943        5.40813016621104        0.04049028709613
C           -4.39140056676533        6.43357033474457       -0.88117077028291
C           -3.61267096101388        6.62430019714910       -2.01287690622813
C           -3.87427956211916        7.73495612713613       -2.79185851086993
C           -4.88874473064730        8.63156948386545       -2.46189170015608
C           -5.67498224848580        8.43800066663497       -1.34356578401668
C           -5.43039134987757        7.33049421634353       -0.54209942972401
C           -6.03123811854065        6.82124501440647        0.65930602433509
C           -7.06195712895835        7.26249125181005        1.47858514455806
C           -7.36917971549111        6.53003564037774        2.60803969980763
C           -6.65097827986025        5.38250315706803        2.93776551936971
C           -5.62089939548286        4.92312471253386        2.13973451098803
C           -5.33106856078169        5.63702965845927        0.98599590991893
C           -3.94580844735567        3.01340949021275       -0.13328802113055
C           -5.40586391929706        2.74022048515196       -0.32698389504602
C           -3.02878261304117        1.97601944026977       -0.13293338680745
N           -1.21702294758596       -0.13894661970536       -0.08014855948611
C            0.06933493095121       -3.57109192449637       -0.11683822194787
C           -0.41366580488268       -4.86079734185667       -0.15949267694932
C           -1.78418741292662       -5.10003168524110       -0.22522803206798
N           -2.24262610071064       -6.42793272931224       -0.25657643775473
C           -3.03776781442582       -7.03523693541677        0.69111081781754
C           -3.51025188461465       -6.53190759227708        1.89451266109024
C           -4.28099897506569       -7.36599808593277        2.68141115519293
C           -4.56697781489215       -8.67283753588471        2.29185471300853
C           -4.07167236845268       -9.18837375100771        1.11058675311920
C           -3.29471169109419       -8.36993960638904        0.30137456317943
C           -2.60491882758654       -8.57017727547606       -0.94270749181256
C           -2.48142883908119       -9.64773056696776       -1.81009170617008
C           -1.72408535556574       -9.49237028406826       -2.95403357994481
C           -1.10002089131579       -8.28070250699808       -3.24450121209972
C           -1.20942561154904       -7.19306745335921       -2.39958099832784
C           -1.95820717625661       -7.34920585275895       -1.24264277539163
H           -4.34475506832094       -5.12573432755302       -1.09031872050541
H           -4.62621105105840       -4.49212188753154        0.52452296679543
H           -4.64370512292035       -3.39542697254583       -0.85660355538977
H           -2.85957103101583       -1.90040495306262       -0.26569061178497
H            2.61112959592034        2.70279229660022        0.21934552033525
H            5.06004938542548        3.11630167189080        0.34477521257108
H            6.50414271326043       -0.09480015162941        2.71429390041732
H            8.37185191927004       -0.61483351663702        4.24496112670524
H           10.65540766888035        0.10696524750866        3.73883083090477
H           11.14756796712901        1.40383434898046        1.69325188764627
H           10.99242145636214        2.79326961539372       -0.69791301418803
H           10.23060608243981        3.89556375033841       -2.77467992647361
H            7.88185586971640        3.79618828441067       -3.45732759567693
H            6.20729413173407        2.60219797978684       -2.08689558314552
H            5.56884765010905       -2.26619209332956       -0.48938866295193
H            6.92998471575364       -1.13768135438184       -0.59918979669489
H            6.40969721853874       -1.73819309916361        0.96824488773113
H            3.34518775080481       -1.48041324010918       -0.04878924739282
H           -0.13800579929808        3.69809315833328        0.18133195864751
H           -1.75636095786160        5.58559931465428        0.21200862624332
H           -2.83152832497740        5.92633681639291       -2.27555938698498
H           -3.28128459205411        7.91124631182818       -3.67719784742064
H           -5.06158144887050        9.48796085577450       -3.09662335057537
H           -6.46560789299257        9.12963294528399       -1.09430176470455
H           -7.60485905224361        8.16389105856558        1.23721300070402
H           -8.16879056262240        6.85540724795733        3.25678269827447
H           -6.90116650815062        4.84432888227837        3.84031532538732
H           -5.04728251025323        4.05014986466851        2.41414505804010
H           -5.54640190538817        1.78102384144956       -0.81891352491174
H           -5.92992624535181        2.71324914015583        0.62816879529400
H           -5.86608012208350        3.51959821027639       -0.93203010818694
H           -3.36480771428421        0.95647450857140       -0.24282401699310
H            1.12729786350806       -3.37324559263929       -0.05772711271487
H            0.26197142339357       -5.70329203170177       -0.13192134793455
H           -3.26662042140537       -5.52928961089489        2.21368145071899
H           -4.66513382037512       -6.99961900071969        3.62216657981181
H           -5.17474512658786       -9.29275942135299        2.93406442512738
H           -4.27609589743108      -10.20824266660948        0.82142821979639
H           -2.97051494238612      -10.58497031268504       -1.59112959930783
H           -1.61391398227388      -10.31910010551102       -3.63999341724432
H           -0.52015880321471       -8.18960675526911       -4.15115630248025
H           -0.73186265720034       -6.25246757571985       -2.63110024611014
