108
 energy: -167.522620754554 gnorm: 0.000132201959 xtb: 6.7.1 (edcfbbe)
C           -4.09227336416705       -4.51004633583582       -0.36481913220961
C           -2.63172317832354       -4.19674895707949       -0.23691730566266
C           -2.18811368495748       -2.89208172851066       -0.19387753079355
C           -0.82208954413264       -2.57852327418637       -0.12266726371502
C           -0.38813079277415       -1.21467673424887       -0.07432046827561
N            0.95569808074192       -0.94771554507364       -0.01789196654544
C            1.32587351127529        0.31730058232270        0.03125002302273
C            2.75641074605965        0.62100624958091        0.07955581181574
C            3.19308863486626        1.94179070008600        0.15822236736461
C            4.54287935861805        2.21257298553151        0.21290155651153
C            5.47170879217187        1.17535651549339        0.18627294230060
N            6.84210154934213        1.48618720058219        0.24893894878338
C            7.71047690258513        1.12802878939644        1.25569768876289
C            7.45084593005956        0.45435880977476        2.44078814977581
C            8.51068411573920        0.23392858873225        3.29944635063563
C            9.79538489372756        0.68041330634994        2.99700561885073
C           10.05239243334461        1.37799944494557        1.83258024300984
C            9.00455758387901        1.61208799092279        0.95279172747923
C            8.89497277075523        2.30658894255552       -0.30061634759343
C            9.80013345410516        2.98203738240432       -1.10781360971906
C            9.34452090626387        3.54703501696689       -2.28328288471911
C            8.00808972899217        3.43986434156278       -2.66306599941594
C            7.08796112451173        2.77079468101190       -1.87903881172797
C            7.53906172384779        2.21269764787116       -0.69177852334854
C            5.05114012789276       -0.15579373856359        0.07442747099168
C            6.04231108570699       -1.27363138410270       -0.03491760029933
C            3.69093162138581       -0.40983831876779        0.03311955846208
N            0.47228619585997        1.32395145073141        0.04627653976889
C           -0.86421342947125        1.02547955136905       -0.02206160471766
C           -1.81427339454440        2.09752663865099       -0.02337193034418
C           -1.38488555903395        3.43216819221721        0.03907689147430
C           -2.30601655032894        4.45103494509943        0.04818384904167
C           -3.67164298379972        4.17236438514327       -0.00492899909610
N           -4.58934607898183        5.24140673611457        0.01167816148939
C           -4.71801938508606        6.19488562938961       -0.97076173840823
C           -4.02345422825080        6.31950369160386       -2.16614766307142
C           -4.36023871702611        7.37134732493982       -2.99617329301756
C           -5.36477219800314        8.27414965682621       -2.65283771651772
C           -6.06610337437986        8.14766150331577       -1.46792908405989
C           -5.74576631596122        7.10109644564178       -0.61548087154991
C           -6.24454948628760        6.66498335220316        0.66051840964409
C           -7.22207460931236        7.13810662314864        1.52368806304774
C           -7.42961396430011        6.47207141466818        2.71739990319363
C           -6.66723882826134        5.35800221181848        3.06282128908383
C           -5.68797909558159        4.86695631320482        2.22096068539746
C           -5.49354211790705        5.51688801783444        1.00950937233673
C           -4.12464809274822        2.84723252785878       -0.09794401227733
C           -5.58750494715754        2.54696716384535       -0.23046664308170
C           -3.19031135312136        1.83331382989331       -0.09770178551880
N           -1.27258792219664       -0.23042862038591       -0.08650498746701
C            0.11144080084938       -3.62657761181331       -0.10848801922980
C           -0.31813142023808       -4.93075727533396       -0.14179063235171
C           -1.68011887973783       -5.22738038818537       -0.19106098910089
N           -2.08659754911594       -6.57636486393999       -0.21731069244352
C           -2.79093965328153       -7.22839123232887        0.76648172979170
C           -3.21708563867785       -6.75519588993892        2.00030813020216
C           -3.90515328903125       -7.62893988894497        2.81999263430131
C           -4.15709447223086       -8.94310689078216        2.43109171358793
C           -3.71237829136747       -9.42631067654787        1.21442518793359
C           -3.01895685084703       -8.56885898870093        0.37268792130700
C           -2.40198422819955       -8.72114421309132       -0.91696594642482
C           -2.28327347650593       -9.77706802547951       -1.80892922178968
C           -1.60505853628253       -9.56771114519790       -2.99550941473684
C           -1.05424897563623       -8.32475811863705       -3.30169627642378
C           -1.16027926220423       -7.25659449722227       -2.43192627648371
C           -1.83161674073769       -7.46521617325318       -1.23497709667679
H           -4.25116230245993       -5.31345536886033       -1.08302659907114
H           -4.50820361822340       -4.83412329487471        0.58909634825698
H           -4.63905439987337       -3.63041049171545       -0.69444470971876
H           -2.89532029045604       -2.07732893816078       -0.22828364404267
H            2.46333276627866        2.73541184579219        0.18328286475973
H            4.89839177494971        3.23007355968794        0.28612296429722
H            6.45113315125161        0.13091692249352        2.69031857915567
H            8.33900690900366       -0.29051345471529        4.22790587500912
H           10.59768894817133        0.48657644490113        3.69324232584185
H           11.04485885840378        1.74024705082239        1.61066768533558
H           10.83766212703424        3.06079964331737       -0.82003904809054
H           10.03272748977997        4.07850645830078       -2.92356748930261
H            7.68544166496502        3.88795918581659       -3.59119369730043
H            6.05411971651485        2.68187681014657       -2.17798323123875
H            5.57363045628224       -2.15052967710636       -0.47399133801854
H            6.88871580093470       -0.97755688821781       -0.65270840767241
H            6.43116310806242       -1.54915842259944        0.94519241344187
H            3.33137750141721       -1.42426046182857       -0.05144831910543
H           -0.32706819720305        3.63672353869314        0.08603150604059
H           -1.98744136615460        5.48203991189490        0.10698041881409
H           -3.24961362497674        5.61556315242618       -2.43328371786458
H           -3.83564275559451        7.49635409597357       -3.93181160219568
H           -5.59847083189082        9.08359580274934       -3.32831644055514
H           -6.84745243559030        8.84632726139047       -1.20924230078784
H           -7.80354180273836        8.01108759228310        1.26807767905097
H           -8.18719659835351        6.82432580590479        3.40153114461747
H           -6.84292716452701        4.87182178043500        4.01110028905499
H           -5.08178880721337        4.01759536340279        2.49878474811129
H           -5.73280728316037        1.53309658835269       -0.59422339563975
H           -6.09539345530935        2.64252062083175        0.72914103169592
H           -6.06060175573656        3.24134549638380       -0.92370013198195
H           -3.50689325330212        0.80384512713021       -0.16952989279161
H            1.16191493601465       -3.38691240718407       -0.06328907452049
H            0.39115271682229       -5.74588915758652       -0.11989482158002
H           -3.00212215570998       -5.74366217375505        2.31119854076423
H           -4.25118719528412       -7.28864336749630        3.78484422844965
H           -4.70023280096571       -9.59492871478141        3.09905363118841
H           -3.89528321127855      -10.45010218365116        0.92470101189113
H           -2.71319463881995      -10.74031813027452       -1.57896184982637
H           -1.50069880437173      -10.37809999804918       -3.70152919973443
H           -0.53529261297437       -8.19420884135309       -4.23973368594393
H           -0.73952796738671       -6.29121259409256       -2.67014291033206
