  58
  -88.6649246438000       0.264144459006890      !
 C         -6.7201146095       -2.4281692437       -0.0318817921
 C         -6.2573405070       -1.6033466068        0.9800017470
 C         -4.9636680562       -1.1186797685        0.9462553515
 C         -4.1115855010       -1.4546880721       -0.1026951968
 C         -2.7251995586       -0.9580085242       -0.1359808209
 C         -1.6961836980       -1.8496274008       -0.3333691896
 C         -0.3604496242       -1.4246903725       -0.3076373594
 N          0.6431456754       -2.3099014961       -0.5283693798
 C          1.8612106524       -1.8694107752       -0.4646911284
 C          2.1671915283       -0.5026202662       -0.1775652843
 N          3.4690289235       -0.0695247070       -0.1199106757
 C          3.7791314355        1.3016769577       -0.2321662315
 C          4.7607081785        1.8548376854        0.5855389898
 C          5.0927413911        3.1908508265        0.4644078587
 C          4.4478562789        3.9898343024       -0.4645407541
 C          3.4682245554        3.4418084163       -1.2756725007
 C          3.1353380552        2.1050233099       -1.1676598626
 C          4.5195385397       -0.9657831301        0.1519267700
 C          5.7089269047       -0.8705157968       -0.5666526661
 C          6.7515770586       -1.7365948771       -0.2986880707
 C          6.6213032238       -2.7067002428        0.6816139680
 C          5.4419270164       -2.8010189603        1.4014228372
 C          4.3963695104       -1.9337168778        1.1458403499
 N          1.2062464968        0.3812050165       -0.0044200467
 C         -0.0662216856       -0.0571656635       -0.0630547464
 C         -1.1280383054        0.8460174968        0.1124801575
 C         -2.4340455918        0.4182088700        0.0709504191
 C         -3.5168192830        1.4089316954        0.2023344441
 C         -3.5004342943        2.3333370137        1.2427755722
 C         -4.5085757324        3.2719831997        1.3635679144
 C         -5.5398657141        3.3072516900        0.4403879789
 C         -5.5557766436        2.4011074926       -0.6069947924
 C         -4.5534963323        1.4571135072       -0.7259973116
 C         -4.5804425386       -2.2966090911       -1.1072350420
 C         -5.8772169057       -2.7753686604       -1.0740289449
 H         -7.7332958797       -2.8011634412       -0.0067860814
 H         -6.9077447477       -1.3367362456        1.8001925841
 H         -4.6038089594       -0.4851105081        1.7432962716
 H         -1.8947682939       -2.8997797558       -0.4842827926
 H          2.6479206217       -2.5818957376       -0.6748784196
 H          5.2595583807        1.2344106621        1.3160055289
 H          5.8555708582        3.6097091948        1.1039290993
 H          4.7070530959        5.0337800487       -0.5554519153
 H          2.9636154183        4.0576961663       -2.0053457589
 H          2.3755869773        1.6812398304       -1.8051773114
 H          5.8051206160       -0.1141750942       -1.3315346699
 H          7.6685407269       -1.6572154519       -0.8630046297
 H          7.4365534646       -3.3833900632        0.8868299821
 H          5.3370325291       -3.5477282161        2.1741383270
 H          3.4830387233       -1.9957482159        1.7195338905
 H         -0.8897836472        1.8878138684        0.2637792700
 H         -2.7010030447        2.2992894056        1.9691071342
 H         -4.4897569833        3.9782904603        2.1807425901
 H         -6.3271231327        4.0404316797        0.5349583139
 H         -6.3531278506        2.4302110465       -1.3351560072
 H         -4.5641280961        0.7589392180       -1.5498281064
 H         -3.9267386077       -2.5587376427       -1.9268294345
 H         -6.2323969567       -3.4196571198       -1.8652194505
  58
  -88.6647112921000       0.210761777343036      !
 C         -6.7352535851       -2.3275181555       -0.5171457590
 C         -5.8813863462       -2.9546158676        0.3744683476
 C         -4.5797797960       -2.5106284060        0.5189122139
 C         -4.1178990609       -1.4243560538       -0.2185627655
 C         -2.7266149810       -0.9619611404       -0.0734972361
 C         -1.7015672517       -1.8741685702       -0.1717839892
 C         -0.3627346721       -1.4609080053       -0.1175128788
 N          0.6387436096       -2.3653043767       -0.2532272474
 C          1.8589130668       -1.9269664435       -0.2166979663
 C          2.1691187859       -0.5414639635       -0.0496243504
 N          3.4684604603       -0.0980567583       -0.0604691559
 C          3.7567066336        1.2623734128       -0.2997174301
 C          4.7389828287        1.9006566648        0.4519854079
 C          5.0440587772        3.2270938749        0.2109563406
 C          4.3718873393        3.9310141653       -0.7738377897
 C          3.3940232129        3.2968718540       -1.5222531460
 C          3.0878867610        1.9688792051       -1.2938787237
 C          4.5403988488       -0.9581450523        0.2394163784
 C          5.7033408820       -0.8981254590       -0.5255215885
 C          6.7681498863       -1.7289912697       -0.2346064849
 C          6.6867013902       -2.6291057102        0.8154706436
 C          5.5345658706       -2.6870784581        1.5819705370
 C          4.4669878097       -1.8541218156        1.3033794595
 N          1.2104814143        0.3540409925        0.0697693698
 C         -0.0632347757       -0.0819544307        0.0416048824
 C         -1.1205851940        0.8348811959        0.1657364098
 C         -2.4289695092        0.4152156423        0.1180996794
 C         -3.5059089618        1.4044416516        0.2982266985
 C         -3.4954187814        2.5901697763       -0.4311130206
 C         -4.4990974297        3.5264038407       -0.2641904936
 C         -5.5208020625        3.2959497018        0.6414542115
 C         -5.5307696694        2.1259766246        1.3828171962
 C         -4.5322893505        1.1856184145        1.2133783476
 C         -4.9814080468       -0.8050297101       -1.1186405906
 C         -6.2793012638       -1.2556948353       -1.2667212825
 H         -7.7517149080       -2.6745179027       -0.6297867409
 H         -6.2308519716       -3.7931196219        0.9592329291
 H         -3.9167214179       -2.9941657592        1.2221179928
 H         -1.9067347211       -2.9231004525       -0.3227188646
 H          2.6427760551       -2.6596700260       -0.3557281210
 H          5.2585073583        1.3541064492        1.2257103004
 H          5.8066550763        3.7137095630        0.8008169642
 H          4.6090023678        4.9680458386       -0.9574031159
 H          2.8695172233        3.8379166975       -2.2958269381
 H          2.3298380659        1.4768873234       -1.8825351537
 H          5.7611771744       -0.1972421629       -1.3452995313
 H          7.6637517455       -1.6776331023       -0.8355561146
 H          7.5184024283       -3.2800194366        1.0373583516
 H          5.4682415160       -3.3786273742        2.4086011812
 H          3.5749265131       -1.8877278662        1.9120088842
 H         -0.8759397081        1.8742739846        0.3233995814
 H         -2.7037309252        2.7656301667       -1.1454081290
 H         -4.4843963651        4.4386096914       -0.8428754151
 H         -6.3058709027        4.0262341757        0.7702913150
 H         -6.3213375842        1.9447391076        2.0961340278
 H         -4.5392718658        0.2794150990        1.8006169710
 H         -4.6269027197        0.0244064756       -1.7124035392
 H         -6.9385853829       -0.7679597301       -1.9698787995
  58
  -88.6646374698000       0.194924070616728      !
 C         -6.7184288148       -2.3161981841        0.6697444610
 C         -6.2748887920       -1.1859940554        1.3363493639
 C         -4.9794935406       -0.7380199183        1.1608488453
 C         -4.1060811029       -1.4176855056        0.3153521119
 C         -2.7176284922       -0.9566275487        0.1445896283
 C         -1.6864872850       -1.8549831318        0.2927468945
 C         -0.3506944507       -1.4368835541        0.2113871311
 N          0.6552203532       -2.3342858571        0.3600089240
 C          1.8726918699       -1.8931675668        0.2881483208
 C          2.1738565240       -0.5101354862        0.0903386890
 N          3.4762443901       -0.0693781777        0.0820637798
 C          3.7786720684        1.2728192006        0.3869051927
 C          3.1227785099        1.9283055348        1.4242730519
 C          3.4463303156        3.2363711199        1.7298475155
 C          4.4290254529        3.9017123449        1.0158103246
 C          5.0851557928        3.2502042438       -0.0147477744
 C          4.7622823148        1.9445680347       -0.3333635911
 C          4.5209123230       -0.9233728767       -0.3123268907
 C          4.3686405959       -1.7766483379       -1.4031165855
 C          5.4050972280       -2.6084802273       -1.7826421003
 C          6.6048355469       -2.5919985944       -1.0907927475
 C          6.7634591669       -1.7367169491       -0.0124408068
 C          5.7300794654       -0.9076205350        0.3797303283
 N          1.2122382394        0.3795436648       -0.0417347298
 C         -0.0595643458       -0.0628685923       -0.0001994080
 C         -1.1231121575        0.8382883617       -0.1776816082
 C         -2.4284126711        0.4090626012       -0.1273075140
 C         -3.5129861873        1.3672558434       -0.4036902153
 C         -4.5097971151        1.0600310300       -1.3266858548
 C         -5.5159456319        1.9670444435       -1.5986152944
 C         -5.5441412000        3.1916592701       -0.9522057056
 C         -4.5519093203        3.5099569804       -0.0402906053
 C         -3.5396900304        2.6069546789        0.2285972976
 C         -4.5560119751       -2.5611333175       -0.3385452681
 C         -5.8546787857       -3.0035466569       -0.1660052764
 H         -7.7328162709       -2.6617437855        0.8037990134
 H         -6.9416366894       -0.6510604065        1.9967614758
 H         -4.6346564872        0.1372143741        1.6911356279
 H         -1.8835856576       -2.8962330444        0.4975126126
 H          2.6637405902       -2.6187458113        0.4246034490
 H          2.3625937817        1.4107882028        1.9882557473
 H          2.9331962944        3.7361104487        2.5381433853
 H          4.6818789132        4.9221907907        1.2611918488
 H          5.8498494907        3.7622591173       -0.5797511674
 H          5.2699324357        1.4402288029       -1.1426360151
 H          3.4391804444       -1.7763368701       -1.9539624436
 H          5.2770418814       -3.2653961080       -2.6300508649
 H          7.4134361677       -3.2397413526       -1.3929256151
 H          7.6960000431       -1.7190780179        0.5314531279
 H          5.8492043294       -0.2423469503        1.2221391272
 H         -0.8854194217        1.8699075072       -0.3881231431
 H         -4.4859152730        0.1106718896       -1.8408557623
 H         -6.2820232264        1.7170550325       -2.3178847259
 H         -6.3349521194        3.8966459940       -1.1612281723
 H         -4.5674008220        4.4651522437        0.4642077027
 H         -2.7719024409        2.8516619730        0.9487144012
 H         -3.8859846040       -3.0921247846       -0.9995024107
 H         -6.1946231909       -3.8870598256       -0.6864361273
  58
  -88.6645933661000       0.186035923738958      !
 C         -6.7224220753       -2.3358917822        0.5767799214
 C         -5.8295824828       -2.5290584111        1.6172838080
 C         -4.5279576267       -2.0758134813        1.5074868732
 C         -4.1047087435       -1.4120945267        0.3593702523
 C         -2.7147246283       -0.9337050658        0.2578424196
 C         -1.6843844045       -1.8074516633        0.5179557358
 C         -0.3479977677       -1.4009067260        0.3988196958
 N          0.6571209321       -2.2784291791        0.6426628227
 C          1.8748142770       -1.8528528562        0.5085122654
 C          2.1770055910       -0.5027056007        0.1507062018
 N          3.4806193968       -0.0692149586        0.0806729375
 C          3.7839169896        1.2966081720        0.2507374854
 C          3.1495031254        2.0415313311        1.2400282687
 C          3.4707820249        3.3736957452        1.4157099810
 C          4.4300620778        3.9751339187        0.6178706624
 C          5.0645691853        3.2349087597       -0.3653135650
 C          4.7437736403        1.9036978380       -0.5538654297
 C          4.5159304359       -0.9577806356       -0.2542878054
 C          4.3319752438       -1.9237870821       -1.2416356304
 C          5.3599757044       -2.7885557983       -1.5662296895
 C          6.5829173372       -2.6946110773       -0.9228771496
 C          6.7727232971       -1.7285942244        0.0520951905
 C          5.7481601043       -0.8653648801        0.3897030837
 N          1.2169060098        0.3695794009       -0.0736252887
 C         -0.0554975881       -0.0617224036        0.0266182762
 C         -1.1181032354        0.8190814358       -0.2357917931
 C         -2.4241346710        0.4027979375       -0.1290431395
 C         -3.5071687801        1.3653258006       -0.3988754296
 C         -4.5370418005        1.5652241320        0.5160699841
 C         -5.5439899603        2.4731447732        0.2472705897
 C         -5.5391242386        3.1906587710       -0.9374214243
 C         -4.5127930202        3.0060231778       -1.8482890641
 C         -3.5003335574        2.1037728588       -1.5788505018
 C         -5.0062822599       -1.2317684432       -0.6859873399
 C         -6.3047518222       -1.6924684787       -0.5764936315
 H         -7.7394963993       -2.6886740078        0.6630181402
 H         -6.1485777896       -3.0335506791        2.5177540911
 H         -3.8337214683       -2.2162030125        2.3237584181
 H         -1.8842119454       -2.8327687910        0.7899554375
 H          2.6661000612       -2.5599958259        0.7202184623
 H          2.4076445393        1.5741981349        1.8687889823
 H          2.9741900485        3.9430756873        2.1873797651
 H          4.6813692888        5.0150616346        0.7616244742
 H          5.8106043316        3.6968747523       -0.9948862469
 H          5.2341037739        1.3292356920       -1.3262636572
 H          3.3845736111       -1.9849572416       -1.7574007337
 H          5.2070833071       -3.5319267387       -2.3343021156
 H          7.3851156972       -3.3679748458       -1.1830288748
 H          7.7236650035       -1.6496009998        0.5573702099
 H          5.8920962235       -0.1140842525        1.1521750538
 H         -0.8806207120        1.8357969440       -0.5095827036
 H         -4.5406330929        1.0134742846        1.4443753424
 H         -6.3367246332        2.6216310124        0.9657542700
 H         -6.3310660810        3.8938165253       -1.1487614021
 H         -4.5019042369        3.5653630748       -2.7725191474
 H         -2.7044199538        1.9513311190       -2.2938476237
 H         -4.6827319976       -0.7383745349       -1.5904379223
 H         -6.9950477456       -1.5473924042       -1.3945709414
  58
  -88.6643522026000       0.144133769294387      !
 C         -6.6367676173       -2.5373903795       -0.0499412190
 C         -5.8700648957       -2.7914674413        1.0747436391
 C         -4.5993763175       -2.2568683036        1.1846076356
 C         -4.0828002984       -1.4502660921        0.1748773349
 C         -2.7136404937       -0.9149371166        0.2716364381
 C         -1.6807703479       -1.7781218140        0.5550290935
 C         -0.3509712300       -1.3364764822        0.5429197422
 N          0.6559934868       -2.2038542549        0.8141502927
 C          1.8705656532       -1.7644126221        0.7056445676
 C          2.1678017309       -0.4173984777        0.3294197352
 N          3.4754914858       -0.0187495348        0.1798087258
 C          3.8439544278        1.3370188563        0.2623664224
 C          3.2665533331        2.1741122669        1.2121831421
 C          3.6640876607        3.4944315382        1.3029566687
 C          4.6420434940        3.9942784865        0.4591823042
 C          5.2163359596        3.1638438672       -0.4882809495
 C          4.8195253237        1.8443006868       -0.5924841498
 C          4.4497088101       -0.9616298693       -0.2001527533
 C          4.1701528920       -1.9103118545       -1.1815749803
 C          5.1321072854       -2.8313201305       -1.5504482464
 C          6.3835682454       -2.8098957070       -0.9572904068
 C          6.6686778633       -1.8604762278        0.0107320212
 C          5.7099336348       -0.9412103632        0.3924850641
 N          1.2057524954        0.4625266353        0.1489063026
 C         -0.0655873046        0.0216575503        0.2404040746
 C         -1.1347111164        0.9030822675        0.0068039106
 C         -2.4352328172        0.4551658507        0.0150271216
 C         -3.5319973640        1.4083995910       -0.2281504763
 C         -3.4772394300        2.2760855416       -1.3153146243
 C         -4.5089019175        3.1643982655       -1.5572719991
 C         -5.6033962235        3.2061853665       -0.7101835350
 C         -5.6573438559        2.3596971974        0.3848156989
 C         -4.6310650089        1.4656838199        0.6249299068
 C         -4.8597387937       -1.2030621037       -0.9541029555
 C         -6.1260979332       -1.7450089356       -1.0647516387
 H         -7.6275667507       -2.9581172658       -0.1371654505
 H         -6.2629862455       -3.4102321527        1.8684222000
 H         -4.0036196054       -2.4507553916        2.0652395671
 H         -1.8693110496       -2.8233621903        0.7471715278
 H          2.6653976795       -2.4582875508        0.9462715426
 H          2.5096997274        1.7877762426        1.8762319590
 H          3.2125373688        4.1353725912        2.0455724283
 H          4.9532678491        5.0249201725        0.5377993644
 H          5.9741798836        3.5454141305       -1.1565092843
 H          5.2628782385        1.2018835162       -1.3393418339
 H          3.1992510740       -1.9160057355       -1.6556580430
 H          4.9045590757       -3.5620496603       -2.3120930730
 H          7.1340661014       -3.5276886637       -1.2508888326
 H          7.6424788938       -1.8390405622        0.4766165220
 H          5.9276602919       -0.2014248670        1.1486536091
 H         -0.9067965527        1.9403932390       -0.1857740990
 H         -2.6295601788        2.2341999311       -1.9842426885
 H         -4.4600356308        3.8243377253       -2.4112110733
 H         -6.4104660983        3.8979310297       -0.9011454417
 H         -6.5043664419        2.3951624588        1.0542045807
 H         -4.6736310354        0.8132756293        1.4844460336
 H         -4.4604065372       -0.5958145438       -1.7528851164
 H         -6.7171646468       -1.5487960030       -1.9473836665
