  58
        -89.01685676
 C         -6.7201146095       -2.4281692437       -0.0318817921
 C         -6.2573405070       -1.6033466068        0.9800017470
 C         -4.9636680562       -1.1186797685        0.9462553515
 C         -4.1115855010       -1.4546880721       -0.1026951968
 C         -2.7251995586       -0.9580085242       -0.1359808209
 C         -1.6961836980       -1.8496274008       -0.3333691896
 C         -0.3604496242       -1.4246903725       -0.3076373594
 N          0.6431456754       -2.3099014961       -0.5283693798
 C          1.8612106524       -1.8694107752       -0.4646911284
 C          2.1671915283       -0.5026202662       -0.1775652843
 N          3.4690289235       -0.0695247070       -0.1199106757
 C          3.7791314355        1.3016769577       -0.2321662315
 C          4.7607081785        1.8548376854        0.5855389898
 C          5.0927413911        3.1908508265        0.4644078587
 C          4.4478562789        3.9898343024       -0.4645407541
 C          3.4682245554        3.4418084163       -1.2756725007
 C          3.1353380552        2.1050233099       -1.1676598626
 C          4.5195385397       -0.9657831301        0.1519267700
 C          5.7089269047       -0.8705157968       -0.5666526661
 C          6.7515770586       -1.7365948771       -0.2986880707
 C          6.6213032238       -2.7067002428        0.6816139680
 C          5.4419270164       -2.8010189603        1.4014228372
 C          4.3963695104       -1.9337168778        1.1458403499
 N          1.2062464968        0.3812050165       -0.0044200467
 C         -0.0662216856       -0.0571656635       -0.0630547464
 C         -1.1280383054        0.8460174968        0.1124801575
 C         -2.4340455918        0.4182088700        0.0709504191
 C         -3.5168192830        1.4089316954        0.2023344441
 C         -3.5004342943        2.3333370137        1.2427755722
 C         -4.5085757324        3.2719831997        1.3635679144
 C         -5.5398657141        3.3072516900        0.4403879789
 C         -5.5557766436        2.4011074926       -0.6069947924
 C         -4.5534963323        1.4571135072       -0.7259973116
 C         -4.5804425386       -2.2966090911       -1.1072350420
 C         -5.8772169057       -2.7753686604       -1.0740289449
 H         -7.7332958797       -2.8011634412       -0.0067860814
 H         -6.9077447477       -1.3367362456        1.8001925841
 H         -4.6038089594       -0.4851105081        1.7432962716
 H         -1.8947682939       -2.8997797558       -0.4842827926
 H          2.6479206217       -2.5818957376       -0.6748784196
 H          5.2595583807        1.2344106621        1.3160055289
 H          5.8555708582        3.6097091948        1.1039290993
 H          4.7070530959        5.0337800487       -0.5554519153
 H          2.9636154183        4.0576961663       -2.0053457589
 H          2.3755869773        1.6812398304       -1.8051773114
 H          5.8051206160       -0.1141750942       -1.3315346699
 H          7.6685407269       -1.6572154519       -0.8630046297
 H          7.4365534646       -3.3833900632        0.8868299821
 H          5.3370325291       -3.5477282161        2.1741383270
 H          3.4830387233       -1.9957482159        1.7195338905
 H         -0.8897836472        1.8878138684        0.2637792700
 H         -2.7010030447        2.2992894056        1.9691071342
 H         -4.4897569833        3.9782904603        2.1807425901
 H         -6.3271231327        4.0404316797        0.5349583139
 H         -6.3531278506        2.4302110465       -1.3351560072
 H         -4.5641280961        0.7589392180       -1.5498281064
 H         -3.9267386077       -2.5587376427       -1.9268294345
 H         -6.2323969567       -3.4196571198       -1.8652194505
