  69
       -112.95948595
 C          6.4142641252        1.5257093859       -0.8268582692
 C          6.1424933900        0.4785024452        0.2601115373
 C          6.5625769656        0.9985711374        1.6366826479
 C          6.9116870364       -0.8047436617       -0.0589453763
 N          4.7112779360        0.1742053569        0.2761642692
 C          3.7530744420        1.1375296864        0.5926178581
 O          4.0244971703        2.2619153266        1.0255232259
 C          2.4422962175        0.6434793822        0.3209039823
 C          1.2303980399        1.3004529478        0.5956334369
 C          0.0416375425        0.6676132018        0.3330903880
 N         -1.1741253026        1.2512668143        0.6993351074
 C         -2.2081514623        0.6001423649        1.3466591312
 C         -2.1899857891       -0.6029943333        2.0377627446
 C         -3.3773529300       -1.0452051867        2.5920094651
 C         -4.5461555185       -0.2969146590        2.4883587859
 C         -4.5527162956        0.9357779844        1.8580469670
 C         -3.3743483757        1.3972955674        1.2936580622
 C         -3.0064422333        2.6060464289        0.6060355991
 C         -3.7058946610        3.7432597533        0.2353487802
 C         -3.0363742205        4.7349117778       -0.4599394717
 C         -1.6908129215        4.5961746395       -0.7955906305
 C         -0.9722670740        3.4714191353       -0.4382418116
 C         -1.6349486944        2.4789671752        0.2736202092
 C          0.0178361365       -0.6444858489       -0.2871041833
 N         -1.1962864006       -1.2122522040       -0.6610295686
 C         -1.6701058004       -2.4411198785       -0.2517414642
 C         -1.0195109318       -3.4455097074        0.4551551552
 C         -1.7466383715       -4.5707912737        0.7925344107
 C         -3.0902888076       -4.6985159514        0.4410433506
 C         -3.7487703240       -3.6949534577       -0.2476043752
 C         -3.0416614718       -2.5553917389       -0.5969466472
 C         -3.3967775467       -1.3363820001       -1.2694631319
 C         -4.5684917554       -0.8549936811       -1.8316987273
 C         -4.5456809816        0.3816973987       -2.4539982908
 C         -3.3663578112        1.1156792079       -2.5545859717
 C         -2.1866663951        0.6565521361       -1.9981686808
 C         -2.2208758188       -0.5492760419       -1.3117287117
 C          1.2337007373       -1.2952318274       -0.5560617143
 C          2.3997951926       -0.6548598905       -0.2757447038
 S          4.0646766215       -1.1583713872       -0.5538211702
 O          4.4219746569       -1.1052438884       -1.9436461057
 O          4.3743227495       -2.3728748106        0.1423961003
 H          5.8864016038        2.4460445477       -0.5882807285
 H          6.0658911456        1.1530550217       -1.7878719205
 H          7.4792902708        1.7328597771       -0.8884402013
 H          6.0073645938        1.9019237556        1.8772476920
 H          6.3570622914        0.2493686286        2.3975936809
 H          7.6256551446        1.2239202000        1.6349610918
 H          7.9793423604       -0.6010345888       -0.0238030391
 H          6.6527852782       -1.1688576160       -1.0491021864
 H          6.6711466596       -1.5801759249        0.6633583831
 H          1.2562297998        2.2628963902        1.0824024932
 H         -1.2777492703       -1.1684144190        2.1507428457
 H         -3.3936454491       -1.9872096044        3.1183833016
 H         -5.4563058479       -0.6774794675        2.9261813876
 H         -5.4534169008        1.5278947426        1.8085657102
 H         -4.7518085680        3.8468220727        0.4796919689
 H         -3.5632876816        5.6299227826       -0.7543420560
 H         -1.1997168240        5.3834504375       -1.3468090584
 H          0.0672646685        3.3669551362       -0.7074978155
 H          0.0175065396       -3.3494154728        0.7378272320
 H         -1.2654397761       -5.3666003263        1.3400891668
 H         -3.6242553568       -5.5945523896        0.7192275384
 H         -4.7928728127       -3.7909660515       -0.5027965669
 H         -5.4769309093       -1.4356883536       -1.7875570464
 H         -5.4505025249        0.7764244596       -2.8903243251
 H         -3.3693276564        2.0582611349       -3.0799706946
 H         -1.2661052422        1.2086831577       -2.1096507644
 H          1.2376351786       -2.2627376123       -1.0332217645
  69
       -112.95945713
 C          6.9042529735       -0.7886364881       -0.1459465261
 C          6.1359682285        0.4659020931        0.2727367658
 C          6.4194334404        1.5976268325       -0.7226616988
 C          6.5457892477        0.8713817100        1.6903811894
 N          4.7037360173        0.1669854092        0.2559256880
 C          3.7470250053        1.1130343153        0.6242547835
 O          4.0216004243        2.2137553961        1.1125457713
 C          2.4354188712        0.6326092537        0.3333375392
 C          1.2243821093        1.2812090633        0.6301259032
 C          0.0338619195        0.6594439260        0.3482878310
 N         -1.1783728092        1.2436389931        0.7244130222
 C         -2.2205403681        0.5942537135        1.3592721257
 C         -2.2222122087       -0.6270795514        2.0182272757
 C         -3.4145321273       -1.0604955833        2.5682761914
 C         -4.5691024427       -0.2868752470        2.4927812782
 C         -4.5552639304        0.9618557642        1.8952443985
 C         -3.3717157656        1.4148256874        1.3349351460
 C         -2.9848602649        2.6350366496        0.6786782732
 C         -3.6635990049        3.7965466137        0.3463884083
 C         -2.9784736321        4.7949064708       -0.3237119450
 C         -1.6385248909        4.6387947715       -0.6734845671
 C         -0.9406233949        3.4897585943       -0.3541228426
 C         -1.6182122695        2.4912083088        0.3346307009
 C          0.0078446955       -0.6352697644       -0.3065145795
 N         -1.2053392395       -1.2045340830       -0.6804064305
 C         -1.6538594924       -2.4530948504       -0.3024116617
 C         -0.9823859114       -3.4612366052        0.3791533820
 C         -1.6855542106       -4.6103337256        0.6862098865
 C         -3.0259223213       -4.7573027895        0.3301333466
 C         -3.7056433769       -3.7496453788       -0.3316435054
 C         -3.0227726458       -2.5863722342       -0.6499495810
 C         -3.4028488930       -1.3576643747       -1.2905313722
 C         -4.5840434590       -0.8879573499       -1.8424414701
 C         -4.5875070658        0.3642155585       -2.4332816875
 C         -3.4242834438        1.1263937848       -2.5124076347
 C         -2.2354479529        0.6789954549       -1.9665185949
 C         -2.2433719196       -0.5451081928       -1.3120025115
 C          1.2234198816       -1.2743200708       -0.6048516655
 C          2.3906839021       -0.6425323380       -0.3113097452
 S          4.0540041182       -1.1324495871       -0.6211582676
 O          4.4001277358       -1.0238607175       -2.0105104060
 O          4.3706648360       -2.3728121568        0.0246245809
 H          6.6438843275       -1.0742269000       -1.1612903509
 H          6.6646435662       -1.6182133694        0.5138185729
 H          7.9719923053       -0.5882899771       -0.0964477503
 H          6.0809467718        1.3064378935       -1.7144930944
 H          5.8903153530        2.4962180379       -0.4145538432
 H          7.4851510203        1.8066107909       -0.7559624652
 H          7.6095811223        1.0914835274        1.7164646733
 H          6.3308873342        0.0640074556        2.3862945931
 H          5.9919434020        1.7549941210        1.9977006927
 H          1.2516356250        2.2282960491        1.1460865744
 H         -1.3210211515       -1.2133158709        2.1110808543
 H         -3.4461418947       -2.0154597198        3.0700117709
 H         -5.4836469988       -0.6607855564        2.9272269992
 H         -5.4439813916        1.5731742600        1.8683062207
 H         -4.7055933791        3.9140653082        0.6010068684
 H         -3.4889635332        5.7088867691       -0.5875931435
 H         -1.1351648815        5.4315284353       -1.2055802056
 H          0.0945925863        3.3721637740       -0.6344588377
 H          0.0519543115       -3.3501770284        0.6660688231
 H         -1.1878784175       -5.4094999483        1.2138183045
 H         -3.5405767376       -5.6718208853        0.5834875484
 H         -4.7472735112       -3.8613287541       -0.5905221542
 H         -5.4792885143       -1.4898680900       -1.8157843554
 H         -5.5000508797        0.7494563950       -2.8619573048
 H         -3.4473633378        2.0818734901       -3.0134245289
 H         -1.3276985821        1.2545342416       -2.0627649937
 H          1.2248252621       -2.2251563111       -1.1145789262
  69
       -112.95936170
 C          6.3835900513        1.4875259058       -0.9484581103
 C          6.1460981133        0.5069260849        0.2065250902
 C          6.5902454739        1.1137336289        1.5391619633
 C          6.9215251735       -0.7870768138       -0.0484974298
 N          4.7187366449        0.1907124953        0.2699832384
 C          3.7567685246        1.1579990182        0.5619324818
 O          4.0237126795        2.3006180766        0.9473970281
 C          2.4465254657        0.6457861233        0.3236641089
 C          1.2340113012        1.3051099735        0.5921522899
 C          0.0478164412        0.6617724507        0.3471823829
 N         -1.1730235924        1.2324040236        0.7174798727
 C         -2.1871499933        0.5663928832        1.3816020215
 C         -2.1362582765       -0.6302406175        2.0819667509
 C         -3.3067217597       -1.0892918363        2.6583570582
 C         -4.4907093081       -0.3641045436        2.5649174373
 C         -4.5303939242        0.8611235192        1.9212811096
 C         -3.3692508383        1.3395278636        1.3352666555
 C         -3.0331371573        2.5485555310        0.6317779928
 C         -3.7594699238        3.6672931734        0.2572430196
 C         -3.1170907198        4.6661666514       -0.4531343135
 C         -1.7715974747        4.5532095387       -0.7985472284
 C         -1.0264653033        3.4470796611       -0.4380047994
 C         -1.6625074620        2.4463020436        0.2864749861
 C          0.0259374721       -0.6595486080       -0.2536487081
 N         -1.1899702221       -1.2076555937       -0.6516553052
 C         -1.7097304981       -2.4178204443       -0.2459525835
 C         -1.1082474065       -3.4337784881        0.4874793866
 C         -1.8774211422       -4.5332928434        0.8159187484
 C         -3.2140626315       -4.6253901813        0.4282357814
 C         -3.8228408653       -3.6118007833       -0.2908177363
 C         -3.0731830302       -2.4974223704       -0.6319105444
 C         -3.3726623522       -1.2773058006       -1.3293719969
 C         -4.5098327345       -0.7716998284       -1.9397288403
 C         -4.4305291097        0.4553788409       -2.5764038100
 C         -3.2294054531        1.1570364449       -2.6415316426
 C         -2.0836247787        0.6737324475       -2.0365996025
 C         -2.1750466442       -0.5235116076       -1.3408941333
 C          1.2410921287       -1.3195080060       -0.5003951304
 C          2.4057843175       -0.6709652609       -0.2319211557
 S          4.0715612830       -1.1790902414       -0.4967272634
 O          4.4195014606       -1.1862873534       -1.8899793700
 O          4.3912156014       -2.3603409848        0.2502563642
 H          5.8502959286        2.4155916101       -0.7562384163
 H          6.0198021826        1.0523765565       -1.8769490331
 H          7.4446133003        1.7014456340       -1.0454087880
 H          6.0305092484        2.0246185326        1.7372654402
 H          6.4100018371        0.4106908812        2.3489372149
 H          7.6504706827        1.3487507822        1.4990729502
 H          7.9878359654       -0.5736145293       -0.0411396057
 H          6.6516029447       -1.2107359536       -1.0116122788
 H          6.6977907049       -1.5204233980        0.7216774454
 H          1.2594390256        2.2771593864        1.0594268127
 H         -1.2113047599       -1.1762089447        2.1869151441
 H         -3.2974917665       -2.0260861999        3.1941332155
 H         -5.3868290651       -0.7571352760        3.0203981264
 H         -5.4433099515        1.4347514907        1.8783020538
 H         -4.8048564404        3.7517468680        0.5110206938
 H         -3.6653024890        5.5473254211       -0.7503848576
 H         -1.3017824050        5.3464801630       -1.3597038580
 H          0.0132770533        3.3629045380       -0.7134162627
 H         -0.0763807480       -3.3650488922        0.7958658820
 H         -1.4357496010       -5.3370018265        1.3848727982
 H         -3.7820868155       -5.5018593465        0.7011551201
 H         -4.8612755251       -3.6811559407       -0.5760317570
 H         -5.4349642631       -1.3268885402       -1.9218555456
 H         -5.3072403991        0.8672809886       -3.0524162172
 H         -3.1882614136        2.0933360581       -3.1765489343
 H         -1.1446305005        1.1991849777       -2.1198009431
 H          1.2467608261       -2.2989735514       -0.9524929340
  69
       -112.95859566
 C          6.3291700111        1.4147092106       -1.1215057268
 C          6.1465670889        0.5398118460        0.1247624257
 C          6.6277788320        1.2690891593        1.3808449008
 C          6.9318619808       -0.7631802689       -0.0388824833
 N          4.7265463269        0.2128855943        0.2635985045
 C          3.7598905647        1.1887855365        0.5079530477
 O          4.0202260536        2.3566865993        0.8136476001
 C          2.4503056111        0.6522678500        0.3242348713
 C          1.2378297100        1.3204439273        0.5725758232
 C          0.0557002956        0.6600589417        0.3613151561
 N         -1.1733629366        1.2082174036        0.7389164908
 C         -2.1417798152        0.5188257508        1.4468832550
 C         -2.0226914916       -0.6618561460        2.1654281667
 C         -3.1544454316       -1.1508443841        2.7922815768
 C         -4.3665185310       -0.4707408567        2.7264217545
 C         -4.4745751797        0.7371184158        2.0580347412
 C         -3.3527793834        1.2455306381        1.4221707263
 C         -3.0837025226        2.4501413995        0.6825705526
 C         -3.8635149611        3.5310994982        0.3059446651
 C         -3.2811734005        4.5380016846       -0.4440114016
 C         -1.9418462488        4.4710279567       -0.8231105255
 C         -1.1432818934        3.4036869773       -0.4600243888
 C         -1.7200874255        2.3927410386        0.2991877259
 C          0.0361858504       -0.6810136862       -0.1974866863
 N         -1.1802416141       -1.1971580497       -0.6366442400
 C         -1.7782337374       -2.3716592628       -0.2392633511
 C         -1.2666144616       -3.4018680779        0.5409492784
 C         -2.1060715021       -4.4551575784        0.8478052679
 C         -3.4232489172       -4.4900289286        0.3907195010
 C         -3.9413835983       -3.4644986372       -0.3806917386
 C         -3.1208617322       -2.3950360292       -0.7003844901
 C         -3.3212438036       -1.1790359915       -1.4399593986
 C         -4.3924198096       -0.6363308005       -2.1329848616
 C         -4.2140744343        0.5685414205       -2.7918455469
 C         -2.9803511271        1.2140385458       -2.7932566087
 C         -1.8997735077        0.6940709637       -2.1044931389
 C         -2.0909503129       -0.4828763175       -1.3950463400
 C          1.2494034551       -1.3570373313       -0.4016590707
 C          2.4118997060       -0.6960352435       -0.1517410266
 S          4.0784828181       -1.2102446903       -0.3987184361
 O          4.4050297966       -1.3107904710       -1.7937834362
 O          4.4195707285       -2.3351646798        0.4217690006
 H          5.7931650657        2.3522345357       -0.9928636898
 H          5.9349762322        0.8944675817       -1.9920527771
 H          7.3831755458        1.6273418349       -1.2789603389
 H          6.0510730919        2.1794317285        1.5258441603
 H          6.5019941043        0.6338150849        2.2544006298
 H          7.6782720007        1.5261962176        1.2737761696
 H          7.9951880238       -0.5382029038       -0.0755441720
 H          6.6451949193       -1.2703625800       -0.9556388854
 H          6.7357155280       -1.4304984388        0.7962053136
 H          1.2627999304        2.3119444622        0.9971332575
 H         -1.0742969139       -1.1703818272        2.2463779997
 H         -3.0924113073       -2.0751166791        3.3459059991
 H         -5.2307184218       -0.8853726511        3.2226026546
 H         -5.4097165080        1.2750432696        2.0353900012
 H         -4.9038215008        3.5805715755        0.5884473852
 H         -3.8723876567        5.3897374295       -0.7445335129
 H         -1.5194116427        5.2708471066       -1.4119921754
 H         -0.1072741354        3.3571775471       -0.7575280362
 H         -0.2486575115       -3.3788409752        0.8984157305
 H         -1.7359126905       -5.2682951912        1.4532538526
 H         -4.0479172214       -5.3319870330        0.6480793173
 H         -4.9644636590       -3.4907739406       -0.7230173915
 H         -5.3423995316       -1.1473077497       -2.1630914048
 H         -5.0379317532        1.0075871132       -3.3335589964
 H         -2.8613291647        2.1335553572       -3.3453159486
 H         -0.9330932760        1.1728275385       -2.1359724495
 H          1.2579772266       -2.3572489185       -0.8057319504
  69
       -112.95852907
 C          6.5184922528       -0.0391268073        1.7283854226
 C          6.1132885020        0.4610069081        0.3362912753
 C          6.8793217179       -0.3245090950       -0.7283627195
 C          6.4056746475        1.9573715241        0.1919798141
 N          4.6787559516        0.2417045783        0.1470488551
 C          3.7242188313        0.8244743826        0.9773531176
 O          3.9991848395        1.5781036380        1.9153390103
 C          2.4129277917        0.4089988447        0.5926226186
 C          1.2012476802        0.8132675900        1.1744973592
 C          0.0063971135        0.4096024447        0.6288495494
 N         -1.1935320159        0.8604980037        1.1838151258
 C         -1.5605580012        0.6774426969        2.5035420697
 C         -0.8209140929        0.1648113517        3.5614621744
 C         -1.4509764084        0.0348851485        4.7852315852
 C         -2.7852939997        0.3969666195        4.9562104341
 C         -3.5341591302        0.8851257665        3.8994524801
 C         -2.9237026724        1.0252758045        2.6630176236
 C         -3.3874723010        1.4610817224        1.3732461465
 C         -4.6089379920        1.9104934723        0.8988487417
 C         -4.7057992957        2.2825698296       -0.4308408040
 C         -3.5943032912        2.2494644871       -1.2691000709
 C         -2.3656449604        1.8067342332       -0.8164691803
 C         -2.2804232629        1.3639349371        0.4968819317
 C         -0.0186291050       -0.4653452211       -0.5295622814
 N         -1.2172877235       -0.8800002101       -1.0985285053
 C         -2.3377941864       -1.3329792412       -0.4303413259
 C         -2.4680274910       -1.7610329065        0.8848478186
 C         -3.7232024309       -2.1428308896        1.3188530029
 C         -4.8208945746       -2.1288944141        0.4601317692
 C         -4.6816767493       -1.7796478805       -0.8721180436
 C         -3.4316712239       -1.3960853214       -1.3299043619
 C         -2.9212551166       -1.0102839632       -2.6160603520
 C         -3.4938453997       -0.8836092975       -3.8721585430
 C         -2.7012453472       -0.4525421568       -4.9219624576
 C         -1.3597795901       -0.1290522542       -4.7253741291
 C         -0.7665310788       -0.2457004619       -3.4819551566
 C         -1.5485153073       -0.7082164777       -2.4307630229
 C          1.2020846095       -0.8907970493       -1.0845390953
 C          2.3697758933       -0.4885866570       -0.5186027062
 S          4.0313606114       -0.8498312443       -0.9749301353
 O          4.3121787189       -0.4133700124       -2.3129194743
 O          4.4110563557       -2.1934598390       -0.6451767783
 H          6.2735612180       -1.0943251867        1.8280722214
 H          5.9833582395        0.5238926739        2.4890308361
 H          7.5873824514        0.0937051192        1.8725415330
 H          6.6703961204       -1.3872492354       -0.6416455952
 H          6.5881181846        0.0001410127       -1.7235701734
 H          7.9462287741       -0.1599970819       -0.5968906602
 H          7.4684013342        2.1410297236        0.3254146909
 H          5.8526079538        2.5161410494        0.9429241177
 H          6.1051143966        2.3004185817       -0.7955854274
 H          1.2255350233        1.5001927687        2.0062201482
 H          0.2098764913       -0.1273885988        3.4347776149
 H         -0.8967537689       -0.3560087754        5.6247594054
 H         -3.2413093365        0.2855485445        5.9283166112
 H         -4.5730970430        1.1457885526        4.0301482911
 H         -5.4635974434        1.9696965250        1.5549299949
 H         -5.6519575108        2.6240465664       -0.8222125018
 H         -3.6902695400        2.5797583360       -2.2920575168
 H         -1.5012322041        1.8141268402       -1.4624514719
 H         -1.6157410457       -1.8064378285        1.5452371535
 H         -3.8525709370       -2.4621034206        2.3415619891
 H         -5.7894642884       -2.4193960262        0.8375112060
 H         -5.5261472393       -1.8074386485       -1.5433761695
 H         -4.5374705722       -1.1123946788       -4.0237588292
 H         -3.1276824716       -0.3542719860       -5.9087827830
 H         -0.7712332883        0.2215082206       -5.5591652682
 H          0.2686706205        0.0223382731       -3.3379935810
 H          1.2043317926       -1.5781917862       -1.9159525966
  69
       -112.95757850
 C          6.5402277360        0.1759825793        1.6832200396
 C          6.0838017389        0.5316307449        0.2629236936
 C          6.8502220121       -0.3254933287       -0.7445664316
 C          6.3209389633        2.0169531340       -0.0261507673
 N          4.6532845107        0.2524297237        0.1322689945
 C          3.7001422297        0.8727808434        0.9368002613
 O          3.9746323181        1.6932229590        1.8168887036
 C          2.3912774269        0.4126731551        0.5972271580
 C          1.1789311951        0.8318257207        1.1664981594
 C         -0.0170894245        0.4004734451        0.6437145048
 N         -1.2106587087        0.8589992021        1.2066077096
 C         -1.5394286992        0.7188180161        2.5428019144
 C         -0.7757786903        0.2221159350        3.5907220240
 C         -1.3684303098        0.1396450642        4.8375645948
 C         -2.6893827149        0.5317880850        5.0398858481
 C         -3.4632417219        1.0024169728        3.9929236932
 C         -2.8902202171        1.0952099629        2.7341875245
 C         -3.3863463882        1.5020974442        1.4469769019
 C         -4.6138390294        1.9621043463        0.9992373865
 C         -4.7472110413        2.2978354603       -0.3367401474
 C         -3.6646808266        2.2169701865       -1.2096131832
 C         -2.4309500340        1.7626520422       -0.7845656677
 C         -2.3089758617        1.3597773327        0.5391705611
 C         -0.0417614621       -0.5130454944       -0.4840618382
 N         -1.2293340711       -0.9125375052       -1.0859533114
 C         -2.3902958635       -1.3302488513       -0.4684280477
 C         -2.6072473055       -1.7026656271        0.8529157623
 C         -3.8903845388       -2.0550148085        1.2238458483
 C         -4.9344346594       -2.0663150802        0.2999254975
 C         -4.7102762407       -1.7722914137       -1.0337721935
 C         -3.4307361933       -1.4180570082       -1.4287777590
 C         -2.8436859568       -1.0828513457       -2.6961767016
 C         -3.3416196544       -0.9991012674       -3.9873507880
 C         -2.4869866228       -0.6075970264       -5.0037457633
 C         -1.1590392663       -0.2787794297       -4.7395928203
 C         -0.6398935380       -0.3540330693       -3.4598636068
 C         -1.4827099922       -0.7818525247       -2.4418203253
 C          1.1814942524       -0.9747263491       -1.0061487561
 C          2.3489179817       -0.5494300750       -0.4583077917
 S          4.0105611433       -0.9265089055       -0.9011628427
 O          4.2707716529       -0.5855323005       -2.2709364456
 O          4.4129599658       -2.2365410515       -0.4769506456
 H          6.3385047772       -0.8735670681        1.8853322491
 H          6.0021137925        0.7866447797        2.4038059273
 H          7.6063081309        0.3600119589        1.7854698920
 H          6.6682035035       -1.3810924760       -0.5618615164
 H          6.5342409315       -0.0956008744       -1.7583761160
 H          7.9150178735       -0.1263428805       -0.6485233665
 H          7.3809846576        2.2443277966        0.0471652847
 H          5.7775153335        2.6248382538        0.6928967215
 H          5.9725222253        2.2592815772       -1.0277511812
 H          1.2011581675        1.5512318984        1.9704212305
 H          0.2447706948       -0.0936965191        3.4398977379
 H         -0.7943865942       -0.2375220848        5.6700097230
 H         -3.1158900481        0.4574562284        6.0287678664
 H         -4.4928303269        1.2855346507        4.1486369244
 H         -5.4447973094        2.0584556742        1.6808776234
 H         -5.6985339266        2.6485205782       -0.7067974229
 H         -3.7882507771        2.5195560116       -2.2381504252
 H         -1.5898673980        1.7320289891       -1.4599068864
 H         -1.7993532448       -1.7282342235        1.5677575009
 H         -4.0856208258       -2.3308276796        2.2487274339
 H         -5.9275001780       -2.3320496735        0.6287586961
 H         -5.5123028083       -1.8192458438       -1.7542563474
 H         -4.3756492631       -1.2303396014       -4.1917836271
 H         -2.8543246563       -0.5437593892       -6.0167833946
 H         -0.5208927557        0.0431471403       -5.5480050521
 H          0.3856708093       -0.0807169337       -3.2656903836
 H          1.1831935788       -1.7039867552       -1.8011928581
