  69
  -112.499311625600       0.232835380456932      !
 C          6.9045107276       -0.7933402639       -0.1014882176
 C          6.1353470038        0.4752980717        0.2704904639
 C          6.4212589515        1.5709004277       -0.7638602267
 C          6.5418540466        0.9309452274        1.6737795976
 N          4.7031328637        0.1759749824        0.2609380713
 C          3.7456358589        1.1345280987        0.5931220939
 O          4.0191518317        2.2519204252        1.0425996223
 C          2.4346791671        0.6440614851        0.3163789147
 C          1.2230005582        1.3028094918        0.5870467870
 C          0.0330959171        0.6714149793        0.3246904991
 N         -1.1799735205        1.2686209664        0.6769327765
 C         -2.2236929796        0.6422299410        1.3320240048
 C         -2.2270255552       -0.5548918083        2.0339983919
 C         -3.4206781721       -0.9684666483        2.5962966548
 C         -4.5750006739       -0.1980192275        2.4906043964
 C         -4.5596441436        1.0286675237        1.8490634727
 C         -3.3747373512        1.4614189418        1.2757951484
 C         -2.9862286587        2.6575144285        0.5774674056
 C         -3.6640812722        3.8064711738        0.2024707923
 C         -2.9772898688        4.7803630359       -0.5010957456
 C         -1.6365323063        4.6119066603       -0.8419270629
 C         -0.9394853927        3.4749559298       -0.4802487772
 C         -1.6187843825        2.5015372306        0.2419836770
 C          0.0085140115       -0.6457703339       -0.2837051069
 N         -1.2038324374       -1.2279715127       -0.6399776377
 C         -1.6533510587       -2.4622963873       -0.2188724663
 C         -0.9835752065       -3.4455584407        0.4997049608
 C         -1.6875651248       -4.5830054149        0.8457773838
 C         -3.0271012617       -4.7425446704        0.4919875536
 C         -3.7051713343       -3.7590627860       -0.2068165193
 C         -3.0214511478       -2.6078488649       -0.5646835568
 C         -3.3999083485       -1.4027030171       -1.2494606167
 C         -4.5797560840       -0.9529223679       -1.8205181767
 C         -4.5817171428        0.2774423280       -2.4555300041
 C         -3.4182445845        1.0363218368       -2.5589672128
 C         -2.2307398150        0.6086215872       -1.9947023345
 C         -2.2403142544       -0.5914266763       -1.2970804253
 C          1.2247355077       -1.2950299750       -0.5562496623
 C          2.3913572664       -0.6532028710       -0.2826084149
 S          4.0553625099       -1.1538340316       -0.5709036627
 O          4.4047752531       -1.0947329272       -1.9624173206
 O          4.3703910775       -2.3704421094        0.1193358525
 H          6.6465159352       -1.1148647254       -1.1066436809
 H          6.6632729203       -1.5989243214        0.5867988609
 H          7.9721473680       -0.5913616786       -0.0566240992
 H          6.0850903529        1.2446174366       -1.7455036565
 H          5.8914918143        2.4798831213       -0.4891607572
 H          7.4870701070        1.7785658652       -0.8020550301
 H          7.6056002267        1.1518337560        1.6945312958
 H          6.3252402077        0.1488354804        2.3974606551
 H          5.9873597977        1.8249306053        1.9481655716
 H          1.2491168094        2.2676495517        1.0690566699
 H         -1.3261065311       -1.1374559245        2.1497744409
 H         -3.4535545019       -1.9049799866        3.1316060843
 H         -5.4906006201       -0.5562384061        2.9359127253
 H         -5.4482431074        1.6386424970        1.7982982479
 H         -4.7066639132        3.9329738863        0.4502851990
 H         -3.4870768712        5.6843797257       -0.7985251467
 H         -1.1318492672        5.3852115025       -1.4006921123
 H          0.0963795964        3.3474623929       -0.7537776824
 H          0.0500941340       -3.3243654569        0.7849318034
 H         -1.1912051114       -5.3629000329        1.4026522451
 H         -3.5424309027       -5.6474715367        0.7764934323
 H         -4.7461968248       -3.8798819085       -0.4640194268
 H         -5.4751131862       -1.5535025429       -1.7745838446
 H         -5.4932131200        0.6471931686       -2.8997922000
 H         -3.4400594163        1.9733760726       -3.0937059802
 H         -1.3227163665        1.1803712243       -2.1092141414
 H          1.2272630318       -2.2633952461       -1.0318290191
  69
  -112.499263275900       0.221222344418296      !
 C          6.4163295330        1.4953222855       -0.8654447308
 C          6.1419030402        0.4874413672        0.2574404921
 C          6.5587794234        1.0561441153        1.6156308112
 C          6.9117379466       -0.8063426757       -0.0139518766
 N          4.7106275894        0.1839102236        0.2809248016
 C          3.7517620852        1.1578826516        0.5606482868
 O          4.0222581911        2.2969545328        0.9539262152
 C          2.4415867864        0.6544824689        0.3035828678
 C          1.2290995714        1.3208143112        0.5519059666
 C          0.0409081055        0.6790385081        0.3092305129
 N         -1.1756661535        1.2753519464        0.6516095208
 C         -2.2112738196        0.6476662082        1.3192388456
 C         -2.1948432914       -0.5301270196        2.0527408981
 C         -3.3835538110       -0.9523418106        2.6195588268
 C         -4.5520442312       -0.2082096307        2.4865960321
 C         -4.5570109143        1.0012831499        1.8128232723
 C         -3.3772739860        1.4424317166        1.2351616136
 C         -3.0076415154        2.6259587299        0.5058510680
 C         -3.7061191719        3.7492684871        0.0932971753
 C         -3.0348737542        4.7155608681       -0.6352395325
 C         -1.6885355061        4.5649703421       -0.9625631013
 C         -0.9709319191        3.4536360648       -0.5637367312
 C         -1.6353777413        2.4871337625        0.1814078244
 C          0.0184587993       -0.6542901865       -0.2639556285
 N         -1.1948260414       -1.2349955409       -0.6203171718
 C         -1.6697159462       -2.4485266556       -0.1686988046
 C         -1.0208782439       -3.4271380924        0.5750113095
 C         -1.7488967976       -4.5397059795        0.9504834937
 C         -3.0917244291       -4.6798499180        0.6005839630
 C         -3.7484919206       -3.7014161768       -0.1248780640
 C         -3.0404624251       -2.5750026577       -0.5128608992
 C         -3.3938849448       -1.3806847347       -1.2291484207
 C         -4.5642269657       -0.9195974711       -1.8109180099
 C         -4.5398407570        0.2941761578       -2.4767564255
 C         -3.3602204331        1.0241136832       -2.6006007574
 C         -2.1818855796        0.5850666129       -2.0254187429
 C         -2.2178192202       -0.5955821869       -1.2966053952
 C          1.2348993306       -1.3141930851       -0.5067226110
 C          2.4003834923       -0.6642576096       -0.2466059658
 S          4.0658737530       -1.1773443040       -0.5026621241
 O          4.4264572449       -1.1736863107       -1.8926491503
 O          4.3737708726       -2.3663156633        0.2370433904
 H          5.8879840095        2.4235620199       -0.6610018351
 H          6.0701948951        1.0887216063       -1.8134156935
 H          7.4815158814        1.7001493721       -0.9318391400
 H          6.0030779768        1.9674827929        1.8225993790
 H          6.3514043005        0.3344812165        2.4022212380
 H          7.6218780179        1.2812875604        1.6084068144
 H          7.9793247686       -0.6015143066        0.0164451253
 H          6.6551438304       -1.2054451052       -0.9911398376
 H          6.6694261365       -1.5555919111        0.7349060261
 H          1.2538643196        2.2999627835        1.0041932099
 H         -1.2829245784       -1.0911722039        2.1879163577
 H         -3.4011700045       -1.8750272877        3.1790660787
 H         -5.4632585075       -0.5729589911        2.9355261747
 H         -5.4575414020        1.5912667118        1.7401839741
 H         -4.7525982674        3.8614581769        0.3313299987
 H         -3.5610138243        5.5995346671       -0.9625350031
 H         -1.1960716564        5.3321406059       -1.5402736321
 H          0.0692237809        3.3396591418       -0.8266495441
 H          0.0154770750       -3.3210519194        0.8565361182
 H         -1.2690607489       -5.3155360442        1.5271336689
 H         -3.6264231977       -5.5654236008        0.9092010328
 H         -4.7919971203       -3.8064433048       -0.3789600986
 H         -5.4728175985       -1.4983530656       -1.7482960425
 H         -5.4435956064        0.6731350859       -2.9289833474
 H         -3.3618688364        1.9474115187       -3.1591855817
 H         -1.2610164142        1.1328813509       -2.1542936791
 H          1.2398775761       -2.2980589594       -0.9491565559
  69
  -112.499172385000       0.200936311083189      !
 C          6.3856594679        1.4518535655       -0.9889400563
 C          6.1455325313        0.5156250968        0.2017655880
 C          6.5864416876        1.1725288313        1.5115288905
 C          6.9217095654       -0.7869461516       -0.0022551656
 N          4.7180598559        0.2017508541        0.2737617897
 C          3.7552913060        1.1791997591        0.5266068014
 O          4.0211894443        2.3356441367        0.8691779507
 C          2.4456761997        0.6580698765        0.3047900759
 C          1.2324528000        1.3268380232        0.5452533583
 C          0.0469162508        0.6744489531        0.3219973146
 N         -1.1748650693        1.2584402327        0.6675340014
 C         -2.1904926120        0.6178382969        1.3539823089
 C         -2.1411314353       -0.5514181773        2.0992575788
 C         -3.3129103409       -0.9885608740        2.6898327497
 C         -4.4967540825       -0.2676698735        2.5662032712
 C         -4.5350462937        0.9323101439        1.8765598406
 C         -3.3725670567        1.3884259299        1.2756128076
 C         -3.0349179010        2.5700278530        0.5276645818
 C         -3.7604841517        3.6736402850        0.1093311476
 C         -3.1165302809        4.6450399261       -0.6368198905
 C         -1.7702068418        4.5193622823       -0.9745176705
 C         -1.0258093904        3.4278227634       -0.5705993433
 C         -1.6634595502        2.4550554169        0.1897311048
 C          0.0266148109       -0.6686714597       -0.2284401820
 N         -1.1882813486       -1.2316967799       -0.6082978531
 C         -1.7088684145       -2.4257436423       -0.1583138469
 C         -1.1090164047       -3.4130909708        0.6144719774
 C         -1.8788449854       -4.4995416232        0.9824684499
 C         -3.2145505285       -4.6065177819        0.5953802464
 C         -3.8217315801       -3.6209946473       -0.1629651161
 C         -3.0713904339       -2.5201734829       -0.5442148360
 C         -3.3693480608       -1.3273912407       -1.2880673491
 C         -4.5051209678       -0.8454803276       -1.9198197762
 C         -4.4244420356        0.3566365682       -2.6022946998
 C         -3.2232459939        1.0555695784       -2.6910853688
 C         -2.0788524338        0.5957410709       -2.0655775718
 C         -2.1717932892       -0.5743307082       -1.3252726252
 C          1.2424270721       -1.3372512261       -0.4471470286
 C          2.4064045397       -0.6787753780       -0.2006518469
 S          4.0728636641       -1.1962218068       -0.4420837199
 O          4.4241163594       -1.2560786408       -1.8332358689
 O          4.3908741034       -2.3482875448        0.3498320824
 H          5.8518052444        2.3864217873       -0.8332516159
 H          6.0241293076        0.9817984448       -1.9011549926
 H          7.4468861226        1.6621653210       -1.0914016185
 H          6.0261333826        2.0901459118        1.6736844774
 H          6.4043524045        0.5006038201        2.3469049160
 H          7.6467327289        1.4060749774        1.4650876356
 H          7.9879757885       -0.5731423056       -0.0004534122
 H          6.6541258086       -1.2468108148       -0.9492814130
 H          6.6962271450       -1.4906609909        0.7945928541
 H          1.2566598953        2.3158826098        0.9754590443
 H         -1.2163685505       -1.0928355087        2.2269895937
 H         -3.3048487119       -1.9044026243        3.2607038924
 H         -5.3939099954       -0.6433603098        3.0341075324
 H         -5.4479221826        1.5037153114        1.8097341872
 H         -4.8064806225        3.7674272925        0.3572502551
 H         -3.6641330248        5.5142050827       -0.9685094635
 H         -1.2991482460        5.2909195326       -1.5641823676
 H          0.0145943430        3.3334941332       -0.8401606066
 H         -0.0778936552       -3.3325289712        0.9224824129
 H         -1.4384369160       -5.2810499496        1.5824818320
 H         -3.7831232524       -5.4721437919        0.8999312355
 H         -4.8594773383       -3.7013059996       -0.4478116468
 H         -5.4302298123       -1.3997821018       -1.8831390632
 H         -5.3000654555        0.7500485866       -3.0956348324
 H         -3.1809354815        1.9709558621       -3.2610599930
 H         -1.1397221998        1.1178580782       -2.1663809121
 H          1.2492810611       -2.3331258832       -0.8618324548
  69
  -112.498959211600       0.160358030401773      !
 C          6.5251534498       -0.0615088968        1.7024034298
 C          6.1139656321        0.4628981136        0.3210375137
 C          6.8768571160       -0.3024626466       -0.7604197893
 C          6.4039433206        1.9619833123        0.2023824374
 N          4.6789859988        0.2451418641        0.1334061964
 C          3.7269388682        0.8117318107        0.9776508414
 O          4.0045889283        1.5488332205        1.9278996777
 C          2.4146882100        0.4014888092        0.5905842326
 C          1.2047626375        0.7937112958        1.1842354390
 C          0.0083162494        0.3983049486        0.6360431192
 N         -1.1900198539        0.8376430666        1.2035782400
 C         -1.5517264537        0.6305494905        2.5212189770
 C         -0.8073746685        0.1000562354        3.5669609535
 C         -1.4325512107       -0.0525448128        4.7906186351
 C         -2.7666459212        0.3046815221        4.9731586085
 C         -3.5201841238        0.8106737060        3.9281764092
 C         -2.9146747649        0.9736977491        2.6921133639
 C         -3.3839538193        1.4318819656        1.4121274567
 C         -4.6077946783        1.8881072508        0.9505277451
 C         -4.7102436117        2.2837643494       -0.3719157857
 C         -3.6019489331        2.2670975611       -1.2148885337
 C         -2.3710077038        1.8179511379       -0.7749598177
 C         -2.2801738866        1.3518593057        0.5299281926
 C         -0.0200962980       -0.4558293927       -0.5377221697
 N         -1.2204270617       -0.8618119936       -1.1094108902
 C         -2.3377873008       -1.3281233989       -0.4451378951
 C         -2.4624178545       -1.7797859295        0.8626775825
 C         -3.7154366724       -2.1709176534        1.2945967254
 C         -4.8164490856       -2.1430668086        0.4404770491
 C         -4.6828024841       -1.7698820883       -0.8858396771
 C         -3.4350469419       -1.3765677524       -1.3414846086
 C         -2.9300725019       -0.9671736504       -2.6224849231
 C         -3.5076593661       -0.8188148950       -3.8739128525
 C         -2.7196476434       -0.3680186676       -4.9188732673
 C         -1.3778344795       -0.0463443050       -4.7216776712
 C         -0.7796508521       -0.1844246311       -3.4828267871
 C         -1.5570026138       -0.6666756451       -2.4370813599
 C          1.1989927289       -0.8697005474       -1.1048933136
 C          2.3683601070       -0.4761467929       -0.5363376807
 S          4.0286176497       -0.8270090658       -1.0054183852
 O          4.3037334404       -0.3663363175       -2.3364573058
 O          4.4112428028       -2.1758204851       -0.7011985917
 H          6.2819131010       -1.1186391751        1.7841469122
 H          5.9922617262        0.4871261839        2.4750396653
 H          7.5944267091        0.0701196497        1.8448119419
 H          6.6695812071       -1.3668546777       -0.6919167048
 H          6.5814162460        0.0395437236       -1.7485399245
 H          7.9440591718       -0.1389349741       -0.6301191990
 H          7.4669489476        2.1446135586        0.3350038582
 H          5.8530868997        2.5065191202        0.9653119588
 H          6.0991525474        2.3222348730       -0.7777319702
 H          1.2314086808        1.4656916240        2.0280075059
 H          0.2232799941       -0.1884875356        3.4311210637
 H         -0.8746119657       -0.4576585762        5.6208923203
 H         -3.2187704409        0.1753109412        5.9448586990
 H         -4.5589315982        1.0676030505        4.0674942692
 H         -5.4599898183        1.9344589075        1.6108347627
 H         -5.6583256226        2.6309471532       -0.7534890251
 H         -3.7022681258        2.6154974991       -2.2314017045
 H         -1.5091026978        1.8380166618       -1.4240163023
 H         -1.6075351899       -1.8358753670        1.5188768435
 H         -3.8404649668       -2.5085876008        2.3119225150
 H         -5.7831962702       -2.4415307564        0.8163132757
 H         -5.5298207106       -1.7867721189       -1.5542445379
 H         -4.5515779231       -1.0462154648       -4.0255767092
 H         -3.1500088486       -0.2526822300       -5.9021365796
 H         -0.7929421792        0.3198309406       -5.5513184043
 H          0.2557663228        0.0823485322       -3.3380662598
 H          1.1988827675       -1.5421212666       -1.9484662794
  69
  -112.498473969800       9.595973109637221E-002 !
 C          6.3312102785        1.3707043332       -1.1638368940
 C          6.1460188561        0.5477448026        0.1169500835
 C          6.6239237369        1.3283559921        1.3430848319
 C          6.9322639757       -0.7604623342        0.0089275204
 N          4.7258129632        0.2260576199        0.2657713639
 C          3.7581566710        1.2106755201        0.4674693894
 O          4.0172590543        2.3903062969        0.7254496289
 C          2.4492447252        0.6663575348        0.3028978366
 C          1.2358924696        1.3435462260        0.5206639719
 C          0.0545547755        0.6743998453        0.3339724489
 N         -1.1756406443        1.2369838622        0.6857896586
 C         -2.1454423212        0.5768015633        1.4192425068
 C         -2.0275549102       -0.5732432623        2.1860527948
 C         -3.1605866426       -1.0366169043        2.8298273180
 C         -4.3727932261       -0.3604423319        2.7331698349
 C         -4.4797801480        0.8188270472        2.0153822679
 C         -3.3566934702        1.3012320852        1.3617818279
 C         -3.0863770444        2.4745245096        0.5738657301
 C         -3.8657575665        3.5386525803        0.1512283438
 C         -3.2820672871        4.5141436803       -0.6381578607
 C         -1.9418125916        4.4323333673       -1.0110161034
 C         -1.1436538561        3.3812635474       -0.6024231453
 C         -1.7218284123        2.4021160087        0.1963907429
 C          0.0369501246       -0.6885454166       -0.1692038574
 N         -1.1782052766       -1.2229712139       -0.5896162210
 C         -1.7766342814       -2.3804386592       -0.1456442745
 C         -1.2664288900       -3.3773919387        0.6775147930
 C         -2.1061589579       -4.4176040518        1.0254798283
 C         -3.4222292577       -4.4719559373        0.5671081552
 C         -3.9389689677       -3.4793184256       -0.2470798263
 C         -3.1181504454       -2.4234852673       -0.6085810757
 C         -3.3172965582       -1.2390608281       -1.3980490517
 C         -4.3870539934       -0.7259060075       -2.1153512282
 C         -4.2076611187        0.4509226231       -2.8228214503
 C         -2.9742169386        1.0964680804       -2.8478862801
 C         -1.8950575942        0.6058611665       -2.1357561229
 C         -2.0874143572       -0.5409909950       -1.3789224360
 C          1.2509423190       -1.3717567707       -0.3425142303
 C          2.4125546080       -0.7004131739       -0.1172699466
 S          4.0799429807       -1.2234690776       -0.3389386221
 O          4.4098537040       -1.3811738851       -1.7279083287
 O          4.4195625410       -2.3134859846        0.5279565711
 H          5.7944956009        2.3124458108       -1.0751568256
 H          5.9393149446        0.8148653871       -2.0131621367
 H          7.3854957195        1.5772345981       -1.3274208585
 H          6.0464811855        2.2435894131        1.4491309266
 H          6.4963341425        0.7295069144        2.2417478592
 H          7.6745576531        1.5813948901        1.2280051189
 H          7.9955769901       -0.5366213358       -0.0344523000
 H          6.6479994140       -1.3050979330       -0.8868514284
 H          6.7344182877       -1.3929488569        0.8703080876
 H          1.2594235044        2.3516933888        0.9041107428
 H         -1.0791361287       -1.0775039871        2.2901030483
 H         -3.0994714111       -1.9372873365        3.4211691902
 H         -5.2379927220       -0.7547589697        3.2439542154
 H         -5.4150972285        1.3548687331        1.9684088029
 H         -4.9067549948        3.5991587984        0.4289986114
 H         -3.8729323296        5.3524757765       -0.9748764571
 H         -1.5183228056        5.2074616288       -1.6313191309
 H         -0.1069207638        3.3230977902       -0.8953136743
 H         -0.2493358963       -3.3391328134        1.0361328985
 H         -1.7370913335       -5.2049378402        1.6647551260
 H         -4.0471446831       -5.3029391187        0.8574281134
 H         -4.9612196997       -3.5202025569       -0.5904484090
 H         -5.3367385012       -1.2381921859       -2.1266439603
 H         -5.0304160384        0.8668643886       -3.3840898828
 H         -2.8542782850        1.9925473703       -3.4370412125
 H         -0.9285120866        1.0834284104       -2.1846313159
 H          1.2609101733       -2.3877467467       -0.7050561331
  69
  -112.498399501700       8.868820254343864E-002 !
 C          6.5470258970        0.1470211026        1.6594020332
 C          6.0844959640        0.5306701899        0.2483983273
 C          6.8472881590       -0.3055801042       -0.7791869869
 C          6.3194820046        2.0216476130       -0.0118872680
 N          4.6536294074        0.2531023797        0.1180894297
 C          3.7034284248        0.8565506617        0.9387931170
 O          3.9810335449        1.6594275298        1.8339745913
 C          2.3934643153        0.4023783323        0.5954892043
 C          1.1832167034        0.8091853636        1.1780271765
 C         -0.0146811266        0.3875081420        0.6516604152
 N         -1.2062036046        0.8338216131        1.2285319226
 C         -1.5293490980        0.6667098412        2.5630003824
 C         -0.7610490142        0.1497040959        3.5976166833
 C         -1.3484807319        0.0418868920        4.8449952187
 C         -2.6688353870        0.4289492865        5.0605679032
 C         -3.4473236959        0.9198605127        4.0264300074
 C         -2.8795777775        1.0382214032        2.7674478002
 C         -3.3812894261        1.4704094146        1.4906906849
 C         -4.6109198469        1.9383894068        1.0573098329
 C         -4.7500367864        2.3006730982       -0.2711240005
 C         -3.6710778421        2.2380629670       -1.1498991498
 C         -2.4353069151        1.7762288945       -0.7391175281
 C         -2.3075953421        1.3470515984        0.5757816834
 C         -0.0434361161       -0.5032929196       -0.4940496971
 N         -1.2332339375       -0.8915281743       -1.0989054196
 C         -2.3913612119       -1.3223452611       -0.4850729039
 C         -2.6026017125       -1.7212682096        0.8294420558
 C         -3.8839661478       -2.0818933442        1.1985422185
 C         -4.9318248133       -2.0754708964        0.2788965615
 C         -4.7133782791       -1.7546730955       -1.0495673359
 C         -3.4357118774       -1.3916842663       -1.4426854091
 C         -2.8541286437       -1.0307758533       -2.7055381146
 C         -3.3574570221       -0.9215825905       -3.9927132927
 C         -2.5072903037       -0.5092126597       -5.0045924981
 C         -1.1784718605       -0.1847820982       -4.7393976140
 C         -0.6539844661       -0.2852363993       -3.4635825162
 C         -1.4923046023       -0.7339386818       -2.4508304261
 C          1.1779434893       -0.9535553959       -1.0303090247
 C          2.3473522980       -0.5384547491       -0.4788933034
 S          4.0073892717       -0.9053992634       -0.9360541139
 O          4.2617081239       -0.5369103977       -2.2997960818
 O          4.4123807322       -2.2233610468       -0.5397919806
 H          6.3468143861       -0.9065061646        1.8413130218
 H          6.0115082956        0.7427615282        2.3942715486
 H          7.6134022468        0.3297405602        1.7609122976
 H          6.6667044597       -1.3647532977       -0.6168815436
 H          6.5269653625       -0.0556886444       -1.7868834811
 H          7.9123445956       -0.1076194147       -0.6835744874
 H          7.3796761311        2.2482779128        0.0615870546
 H          5.7786501752        2.6146384349        0.7214105357
 H          5.9667664070        2.2837049371       -1.0069944747
 H          1.2083103852        1.5123870494        1.9960793064
 H          0.2590695084       -0.1622902772        3.4362964124
 H         -0.7707539692       -0.3514361197        5.6673545887
 H         -3.0911974297        0.3345483217        6.0495169105
 H         -4.4764401560        1.1990623460        4.1920215929
 H         -5.4391106809        2.0204887875        1.7441637388
 H         -5.7031081818        2.6579996424       -0.6301648437
 H         -3.7990987773        2.5610670338       -2.1716601714
 H         -1.5970078802        1.7597259907       -1.4184009121
 H         -1.7917389628       -1.7605420135        1.5402897520
 H         -4.0747809530       -2.3782874802        2.2184992952
 H         -5.9233498924       -2.3484469820        0.6064440314
 H         -5.5183504460       -1.7877907145       -1.7675309726
 H         -4.3921756264       -1.1494349354       -4.1974616831
 H         -2.8788599352       -0.4253953809       -6.0146263540
 H         -0.5438841207        0.1537082349       -5.5438357514
 H          0.3721994976       -0.0151156381       -3.2682150984
 H          1.1768189728       -1.6667695761       -1.8397798521
