  69
       -112.95948595
 C          6.4142641252        1.5257093859       -0.8268582692
 C          6.1424933900        0.4785024452        0.2601115373
 C          6.5625769656        0.9985711374        1.6366826479
 C          6.9116870364       -0.8047436617       -0.0589453763
 N          4.7112779360        0.1742053569        0.2761642692
 C          3.7530744420        1.1375296864        0.5926178581
 O          4.0244971703        2.2619153266        1.0255232259
 C          2.4422962175        0.6434793822        0.3209039823
 C          1.2303980399        1.3004529478        0.5956334369
 C          0.0416375425        0.6676132018        0.3330903880
 N         -1.1741253026        1.2512668143        0.6993351074
 C         -2.2081514623        0.6001423649        1.3466591312
 C         -2.1899857891       -0.6029943333        2.0377627446
 C         -3.3773529300       -1.0452051867        2.5920094651
 C         -4.5461555185       -0.2969146590        2.4883587859
 C         -4.5527162956        0.9357779844        1.8580469670
 C         -3.3743483757        1.3972955674        1.2936580622
 C         -3.0064422333        2.6060464289        0.6060355991
 C         -3.7058946610        3.7432597533        0.2353487802
 C         -3.0363742205        4.7349117778       -0.4599394717
 C         -1.6908129215        4.5961746395       -0.7955906305
 C         -0.9722670740        3.4714191353       -0.4382418116
 C         -1.6349486944        2.4789671752        0.2736202092
 C          0.0178361365       -0.6444858489       -0.2871041833
 N         -1.1962864006       -1.2122522040       -0.6610295686
 C         -1.6701058004       -2.4411198785       -0.2517414642
 C         -1.0195109318       -3.4455097074        0.4551551552
 C         -1.7466383715       -4.5707912737        0.7925344107
 C         -3.0902888076       -4.6985159514        0.4410433506
 C         -3.7487703240       -3.6949534577       -0.2476043752
 C         -3.0416614718       -2.5553917389       -0.5969466472
 C         -3.3967775467       -1.3363820001       -1.2694631319
 C         -4.5684917554       -0.8549936811       -1.8316987273
 C         -4.5456809816        0.3816973987       -2.4539982908
 C         -3.3663578112        1.1156792079       -2.5545859717
 C         -2.1866663951        0.6565521361       -1.9981686808
 C         -2.2208758188       -0.5492760419       -1.3117287117
 C          1.2337007373       -1.2952318274       -0.5560617143
 C          2.3997951926       -0.6548598905       -0.2757447038
 S          4.0646766215       -1.1583713872       -0.5538211702
 O          4.4219746569       -1.1052438884       -1.9436461057
 O          4.3743227495       -2.3728748106        0.1423961003
 H          5.8864016038        2.4460445477       -0.5882807285
 H          6.0658911456        1.1530550217       -1.7878719205
 H          7.4792902708        1.7328597771       -0.8884402013
 H          6.0073645938        1.9019237556        1.8772476920
 H          6.3570622914        0.2493686286        2.3975936809
 H          7.6256551446        1.2239202000        1.6349610918
 H          7.9793423604       -0.6010345888       -0.0238030391
 H          6.6527852782       -1.1688576160       -1.0491021864
 H          6.6711466596       -1.5801759249        0.6633583831
 H          1.2562297998        2.2628963902        1.0824024932
 H         -1.2777492703       -1.1684144190        2.1507428457
 H         -3.3936454491       -1.9872096044        3.1183833016
 H         -5.4563058479       -0.6774794675        2.9261813876
 H         -5.4534169008        1.5278947426        1.8085657102
 H         -4.7518085680        3.8468220727        0.4796919689
 H         -3.5632876816        5.6299227826       -0.7543420560
 H         -1.1997168240        5.3834504375       -1.3468090584
 H          0.0672646685        3.3669551362       -0.7074978155
 H          0.0175065396       -3.3494154728        0.7378272320
 H         -1.2654397761       -5.3666003263        1.3400891668
 H         -3.6242553568       -5.5945523896        0.7192275384
 H         -4.7928728127       -3.7909660515       -0.5027965669
 H         -5.4769309093       -1.4356883536       -1.7875570464
 H         -5.4505025249        0.7764244596       -2.8903243251
 H         -3.3693276564        2.0582611349       -3.0799706946
 H         -1.2661052422        1.2086831577       -2.1096507644
 H          1.2376351786       -2.2627376123       -1.0332217645
