99
 energy: -158.096174484277 gnorm: 0.000123141508 xtb: 6.7.1 (edcfbbe)
C            7.20002613674665       -4.81358213116312        0.03737548903822
C            5.81544848160629       -4.80797266244233       -0.03268951953013
C            5.12710151748513       -3.61066048348372       -0.03971663602306
C            5.82434448539415       -2.40525354914427        0.02254561857650
C            5.09775720758862       -1.13655917120147        0.01303819689400
N            5.80114727526268       -0.00820819938383       -0.00310971248116
C            5.09897081093587        1.12094535034494       -0.01969181238097
C            5.82667046654634        2.38902403809750       -0.02681808031559
C            7.21872858118451        2.39887392502035       -0.08990027583057
C            7.90160256403283        3.59944388814132       -0.09323814153001
C            7.20442926437361        4.79631988115843       -0.03294142368675
C            5.81953929224975        4.79176967022008        0.03022989521606
C            5.13019666098419        3.59498838796269        0.03298067525481
N            3.76869030983423        1.16749458270802       -0.02837115243601
C            3.14872662045841       -0.00687384628138       -0.00386856221785
C            1.68633884037578       -0.00522419674713       -0.00315151848620
C            0.99222047433281        1.16464002056420       -0.28931674765172
C           -0.39411983244826        1.17695570133969       -0.29326646066800
N           -1.07294545003983        2.36650809047943       -0.58451493693551
C           -2.14306216698639        2.50665607615293       -1.44908856322943
C           -2.60192756238190        1.63680216100635       -2.42588688742289
C           -3.70630219886897        2.01980572193349       -3.16202348320045
C           -4.32249417579461        3.25131910844704       -2.95682908817852
C           -3.82876012741644        4.14784039001759       -2.02985153103562
C           -2.72487552542933        3.78082072918414       -1.27296566427478
C           -1.94984363793689        4.44767721069688       -0.26357214923415
C           -2.03402031484573        5.69798120800101        0.33331517873720
C           -1.11451488758033        6.02938834655433        1.30875672114129
C           -0.12718165514030        5.12798209059167        1.69808032971862
C           -0.02529596351390        3.87597679339764        1.12098918010165
C           -0.93631800170267        3.54553577176021        0.12907583612830
C           -1.10985299908384        0.00034821852677       -0.00016228432408
N           -2.50693285225522        0.00303163638115        0.00112191687557
C           -3.31526509374891        0.83696115333809        0.75261249293451
C           -2.96336682174083        1.78386573928431        1.70171827460204
C           -3.98017800015454        2.48638881600342        2.31899998406310
C           -5.31710858907265        2.23443051318924        2.02501604362268
C           -5.67305688887893        1.25253785036130        1.12160169737393
C           -4.66812849039766        0.54126308687482        0.48174179216343
C           -4.67044359719984       -0.53282239224400       -0.47190808754693
C           -5.67826379756943       -1.24333830173212       -1.10805298504029
C           -5.32639587745217       -2.22540370390765       -2.01290011699133
C           -3.99080942588617       -2.47795693038300       -2.31236172053164
C           -2.97121288049385       -1.77624612672547       -1.69877462228287
C           -3.31889239224873       -0.82972190055450       -0.74774960353425
C           -0.39806768412915       -1.17916326705263        0.29146278715941
N           -1.08164901003945       -2.36565125769938        0.58450766251712
C           -0.95473516155588       -3.54458036314670       -0.13110987284555
C           -0.04747242488780       -3.88024241159052       -1.12469735430142
C           -0.15967969798326       -5.13037364653346       -1.70393643012425
C           -1.15340430708446       -6.02490505165896       -1.31500421391702
C           -2.06895166382068       -5.68833291997401       -0.33762640959450
C           -1.97442098968217       -4.43981396377235        0.26142935899546
C           -2.74313860796517       -3.76891307539702        1.27294134796376
C           -3.84926207254166       -4.12869112679611        2.03008169324393
C           -4.33526715432688       -3.22994531317739        2.95893049275692
C           -3.70930321814759       -2.00359362538331        3.16575055453910
C           -2.60279036247549       -1.62778142608741        2.42917095136896
C           -2.15159533839494       -2.49947298187848        1.45040491660029
C            0.98834970808959       -1.17248156062138        0.28439100046399
N            3.76730760381871       -1.18186763131648        0.02079468075992
C            7.21609613978804       -2.41614006055517        0.09194427822152
C            7.89795066229718       -3.61726778077169        0.09976455724733
H            7.73595865994353       -5.75148438737981        0.04349121673107
H            5.27377389513627       -5.74119877941086       -0.08176058017468
H            4.05006856046521       -3.58763931056622       -0.09556591664679
H            7.74373193442513        1.45783792765485       -0.13715894897210
H            8.98057819405872        3.60602090438667       -0.14285784305881
H            7.74125863647478        5.73372250151771       -0.03506047777241
H            5.27825806173260        5.72531244286173        0.07745300940476
H            4.05286769223406        3.57311345062673        0.08347195325274
H            1.54303938697177        2.05672300491442       -0.54037508805182
H           -2.11167673708547        0.69471009718391       -2.61676621836505
H           -4.09465690884204        1.34952808507260       -3.91427674221260
H           -5.18750063189951        3.51299896307960       -3.54771919590113
H           -4.28644544519038        5.11615960840679       -1.89532351333883
H           -2.80686572833591        6.39197138952276        0.03969347431317
H           -1.16116668420020        6.99808214513811        1.78371495776176
H            0.57308555958477        5.41097604339459        2.47023945521073
H            0.73513199829089        3.17944721178049        1.44208095733083
H           -1.93267801536483        1.96866106944331        1.96442135577701
H           -3.72868704959986        3.24247416884979        3.04785430790805
H           -6.08396356455766        2.80646697533373        2.52571433163553
H           -6.71047747616574        1.03662465428166        0.91616182336853
H           -6.71476423943937       -1.02656592663134       -0.89891911448071
H           -6.09557847320004       -2.79675012605172       -2.51079726181376
H           -3.74247143172411       -3.23394808705782       -3.04238949710114
H           -1.94161064991686       -1.96145468710703       -1.96545930275614
H            0.71782619525547       -3.18893661345341       -1.44550031466779
H            0.53746681296810       -5.41738802003635       -2.47743097457104
H           -1.20815982056259       -6.99230534997332       -1.79173609556449
H           -2.84672724683288       -6.37690198631071       -0.04424661396564
H           -4.31451920496723       -5.09318183331940        1.89405642117594
H           -5.20191317526747       -3.48569147498625        3.55001561555736
H           -4.09195700330883       -1.33173474041211        3.91951121877152
H           -2.10518541405757       -0.68970546074139        2.62094035873719
H            1.53618802221454       -2.06674302883696        0.53428180287702
H            7.74153138567933       -1.47543387926839        0.14101909954868
H            8.97665693824819       -3.62474076007914        0.15486441354310
