99
 energy: -158.022811207332 gnorm: 0.000076159207 xtb: 6.7.1 (edcfbbe)
C            7.24626094716815       -4.79874904314179        0.40745242455569
C            5.85898546557466       -4.80648063994940        0.40417461174265
C            5.15871502319261       -3.62096244226845        0.31434105296575
C            5.84361430868799       -2.40816223744850        0.22629748933893
C            5.10902637142179       -1.15482059374005        0.11965916369802
N            5.81169030154661       -0.00940497374239       -0.00217113238447
C            5.11268218027043        1.13821186806399       -0.12348019265260
C            5.85135154100409        2.38914766983862       -0.23076738523863
C            7.24640125553095        2.38324002741772       -0.23611482598695
C            7.94393856196549        3.57123666705513       -0.32709474318361
C            7.26171764568014        4.77507573072747       -0.41312723835153
C            5.87448254390227        4.78738631630942       -0.40872286792497
C            5.17038242386451        3.60417843767224       -0.31829277959893
N            3.80810911475855        1.16266645462135       -0.14337191076642
C            3.13103547785065       -0.00502867810243       -0.00108920348077
C            1.71383107961452       -0.00272445542350       -0.00045904213847
C            0.99378778690812        1.18002146008073       -0.26558435793188
C           -0.38235198336020        1.18294758722338       -0.27398874894367
N           -1.07978192421547        2.37170163300449       -0.55250606254908
C           -2.12462324995340        2.50670566932736       -1.44274857982232
C           -2.54047730288490        1.64352414605258       -2.44609212468245
C           -3.63490261651942        2.01490183762108       -3.20264793749666
C           -4.28430449801260        3.22801841980829       -2.99005434323788
C           -3.83550418652147        4.11877483604392       -2.03286914810864
C           -2.74245038560138        3.76402886599967       -1.25652241530450
C           -2.00809790660714        4.42584061128347       -0.21297819205096
C           -2.13172569284946        5.65956543986720        0.40851337312070
C           -1.24092149774166        5.98702053509447        1.41342586095799
C           -0.24315401675450        5.09800824992130        1.80614978271703
C           -0.10193464679501        3.86176648802324        1.20494686032479
C           -0.98538192014590        3.53396599490844        0.18561549225429
C           -1.10675841678012        0.00189178793244        0.00077738390378
N           -2.50915832597920        0.00418804633555        0.00140480341659
C           -3.31414786959355        0.80893081956483        0.77966962349016
C           -2.95970057053739        1.72995919233770        1.75549721005769
C           -3.97408792345452        2.41696816735467        2.39269494569675
C           -5.31205251844607        2.17828397679306        2.08982130357148
C           -5.67182185606854        1.22514848909813        1.15565894175951
C           -4.67007203254948        0.52872770900298        0.49667662246996
C           -4.67221075999706       -0.51327776433083       -0.49197187499075
C           -5.67680867637208       -1.20640973522897       -1.15008431424916
C           -5.32097667324637       -2.16070021085536       -2.08457542951112
C           -3.98406524195026       -2.40375203878626       -2.38862703280375
C           -2.96687939942391       -1.72007995794120       -1.75230354957704
C           -3.31745764048311       -0.79791272017246       -0.77615276088318
C           -0.38597975815362       -1.18152126131248        0.27490909431164
N           -1.08704164924447       -2.36800702564585        0.55403194703108
C           -0.99708159010722       -3.53056313887973       -0.18420386583625
C           -0.11563038770548       -3.86119088448004       -1.20434183723827
C           -0.26139561511100       -5.09695581851355       -1.80544014704403
C           -1.26167794900133       -5.98274726634869       -1.41182268706437
C           -2.15049445378248       -5.65243762301098       -0.40609727184164
C           -2.02231708568660       -4.41911885436361        0.21530623737583
C           -2.75358472370386       -3.75494965867684        1.25950652848928
C           -3.84710878718184       -4.10615867983123        2.03682017795984
C           -4.29217815794852       -3.21396600370011        2.99439492821702
C           -3.63866173728784       -2.00295558576473        3.20642242369287
C           -2.54370383322359       -1.63511985479835        2.44890896135528
C           -2.13153021496110       -2.49963880942230        1.44520518885097
C            0.99014733476621       -1.18311087679226        0.26530441061838
N            3.80440600399122       -1.17483983898070        0.14058693902692
C            7.23869295941423       -2.40686744617286        0.23051794252992
C            7.93237707681120       -3.59715971772336        0.32089646828444
H            7.79146243857309       -5.72858998053848        0.47680303999308
H            5.32517222554285       -5.74332058529364        0.47105815163094
H            4.07964848913366       -3.61112574781720        0.30838979152345
H            7.76337520406529        1.43844512767883       -0.16774557310160
H            9.02420153396015        3.56244161043799       -0.33044343606151
H            7.80992639513208        5.70311023099655       -0.48294484399223
H            5.34370579973372        5.72597494081982       -0.47523466721982
H            4.09129716835252        3.59788604960329       -0.31148721081578
H            1.54026633840462        2.07934889133014       -0.49941977918448
H           -2.02197236001305        0.71738292401902       -2.63916477772152
H           -3.98938396113845        1.35081697220110       -3.97668473601605
H           -5.14026810162470        3.48135529811517       -3.59741665292656
H           -4.32145756212357        5.07218570733574       -1.89138838062114
H           -2.91086970098989        6.34543815623794        0.11249887603006
H           -1.31878628052426        6.94395761123540        1.90759834570078
H            0.43378885035621        5.37963047884349        2.59907502449386
H            0.66691667894056        3.17331214381588        1.52239759178626
H           -1.92774287731617        1.90291678554361        2.02062706603700
H           -3.72146382910887        3.15054276359172        3.14372189146312
H           -6.07748993127193        2.73788669321977        2.60637586476828
H           -6.71029812293200        1.02240216300567        0.94214161335081
H           -6.71442927908731       -1.00027801470858       -0.93564979357521
H           -6.08869099432913       -2.71780125673763       -2.60045447526469
H           -3.73449730129642       -3.13815056687647       -3.13987014028225
H           -1.93572596967401       -1.89640772645152       -2.01833844881080
H            0.65514670725933       -3.17521610594064       -1.52248899244313
H            0.41389686533558       -5.38073990344297       -2.59900121296788
H           -1.34307618194085       -6.93942133375823       -1.90593326317296
H           -2.93157113399335       -6.33579703938736       -0.10936688517778
H           -4.33625263409471       -5.05800004733840        1.89577223687646
H           -5.14841442322158       -3.46453629287308        3.60251908799856
H           -3.99031801650336       -1.33772846073034        3.98076645592872
H           -2.02204811904480       -0.71065330233190        2.64151656749974
H            1.53387150107151       -2.08423440083618        0.49864827194863
H            7.75872775947239       -1.46377926892677        0.16177363133377
H            9.01266651457687       -3.59192985192899        0.32340025341025
