62
 energy: -92.684745428671 gnorm: 0.000070431352 xtb: 6.7.1 (edcfbbe)
C           -4.56186255650297       -2.57491792261851       -0.74537777568249
C           -4.65853948222065       -1.07901163975192       -1.06203753650728
C           -4.57391230060241       -0.84433494002774       -2.57302869310929
C           -5.92024486391938       -0.47797752419531       -0.48393430226255
C           -7.23274279671661       -0.78435249378146       -0.76885454920536
C           -8.24067272021180       -0.09283855433544       -0.10905368098758
C           -7.93685048381804        0.88946407752223        0.82142354411114
C           -6.62064381549708        1.20345076053159        1.11565761182692
C           -5.61195571332349        0.51500787438367        0.45959442539835
C           -4.16962710583071        0.62221005311920        0.55964094808339
C           -3.36395841205966        1.43833045518335        1.34098079041061
C           -1.99252962842071        1.32979464506091        1.22707266517875
C           -1.40033216080929        0.40797872336098        0.35271181875491
C            0.04884575458540        0.29530720936473        0.26115339173710
C            0.67547070316058       -0.98043290825684        0.43115753235453
C           -0.05533006000255       -2.11903150061672        0.78036853949039
C            0.54201678309836       -3.37506298887862        0.84742287389986
C            1.88309471831413       -3.51272093787617        0.56177018438541
C            2.64913722822680       -2.38361458404810        0.28336980934723
C            2.08717312127913       -1.10462459403897        0.27246092929996
C            2.88625669039981        0.06819405425202        0.08260369032455
C            4.33474177054217       -0.04830888455093       -0.00656575066903
C            5.03366987172983        0.48278185903373       -1.09995694609604
C            6.40142564269639        0.36609446866529       -1.19300790115597
C            7.11942840871345       -0.27543108322188       -0.17846277192535
C            8.52131717978401       -0.39072085058886       -0.26549278981674
N            9.66325482688955       -0.48523896567166       -0.33649180069221
C            6.43677837385861       -0.80228341801347        0.92284939532015
C            5.06718379925846       -0.69565973583611        0.99873637071353
C            2.26559141551948        1.35431102217904       -0.01974121832671
C            3.01661627900803        2.52835659799369       -0.11557076492003
C            2.40949955432421        3.76655742607162       -0.30966250154553
C            1.03842583281642        3.84527297502591       -0.42342933221433
C            0.26328442272832        2.69903017233688       -0.26736567477269
C            0.84336924028594        1.45657557476229        0.00024950623409
C           -2.22625923200266       -0.41601361627749       -0.42844242484372
C           -3.58994413040706       -0.30273492803208       -0.32530259324357
H           -4.62720776733163       -2.73678573306820        0.32877376524386
H           -3.61540509752048       -2.97578576475234       -1.10134017614277
H           -5.37259021827484       -3.11633336243154       -1.22705435654347
H           -4.64012376785478        0.21920161786049       -2.79287479677512
H           -3.63092552306794       -1.22177247135448       -2.96175702946726
H           -5.38908611496637       -1.35491897504679       -3.08030143546084
H           -7.48208341429711       -1.54731160660322       -1.49207329782983
H           -9.27406374006465       -0.32267149534247       -0.32377968717141
H           -8.73732489705087        1.41477170369716        1.32181228212817
H           -6.38580996908965        1.96828894481264        1.84099406575153
H           -3.79945969812642        2.14297893767488        2.03385452210759
H           -1.35290207617377        1.93645035782628        1.85197333024322
H           -1.10563653034867       -2.02627374705595        1.00995135105395
H           -0.05542861193069       -4.23580713798202        1.10834285864258
H            2.35039538447401       -4.48588572706156        0.56728396976198
H            3.69906461918813       -2.50665274617332        0.06608263433980
H            4.47971432483075        0.95823493641069       -1.89632206797565
H            6.92904631147936        0.76296442156156       -2.04814718751926
H            6.99386896622051       -1.28767777765847        1.71100109254998
H            4.54512543716419       -1.08347584203525        1.86139021044745
H            4.09160332034829        2.48217762010458       -0.03202448057958
H            3.02017023930015        4.65359685207441       -0.38494913006195
H            0.55656224863897        4.79189605172001       -0.61691278296496
H           -0.80910281836092        2.77491160924443       -0.36031952253590
H           -1.77482352203472       -1.10525918623202       -1.12762506108096
