62
 energy: -92.684748405548 gnorm: 0.000093457364 xtb: 6.7.1 (edcfbbe)
C           -4.55720301861512       -2.46982260363704       -1.04920439428636
C           -4.65673535370740       -0.94813554035176       -1.19289989763468
C           -4.57309443479117       -0.54205018008932       -2.66757972373921
C           -5.91936399242885       -0.41641878448646       -0.55228352239921
C           -7.23134687118866       -0.69796461429037       -0.86405760264538
C           -8.24035192380983       -0.08349412080170       -0.13350371390474
C           -7.93812594506803        0.79887695092965        0.89266240363047
C           -6.62242562741163        1.08805636475501        1.21354327148767
C           -5.61271994948843        0.47627666701136        0.48701734598383
C           -4.17033820935888        0.57844072671555        0.59479085651397
C           -3.36638425071193        1.31848433575955        1.44992635257672
C           -1.99457117662566        1.22566172961837        1.32458251619017
C           -1.40186982812434        0.38980598520286        0.36889229774464
C            0.04857302453482        0.28677015270618        0.26933547368084
C            0.67690836821575       -0.99637536100511        0.34915054428064
C           -0.05434284251825       -2.15827484335649        0.60917947040489
C            0.54683052833034       -3.41433240611909        0.59740733390423
C            1.89178059229879       -3.52818027966467        0.32026116702563
C            2.65650917091029       -2.38066155029095        0.12467707776762
C            2.09001306774539       -1.10552784559847        0.19201473769250
C            2.88583176527580        0.07963196721279        0.08032638903141
C            4.33522012886372       -0.02736916058226       -0.01089318788896
C            5.03601933946658        0.56665951406268       -1.06996778839304
C            6.40447981312370        0.45901414800589       -1.16469539474979
C            7.12084595939017       -0.23679662199530       -0.18545143265302
C            8.52341010685214       -0.34334644501840       -0.27396244928360
N            9.66578395941181       -0.43071583565103       -0.34629906916423
C            6.43612555538997       -0.82694122590966        0.88191197732979
C            5.06591366221374       -0.72868082045347        0.95869519990271
C            2.26194628810678        1.36815830411628        0.05895576568774
C            3.00963917772312        2.54784404301666        0.03439151591646
C            2.39839979645005        3.79473484206829       -0.07390628083117
C            1.02628229930085        3.87796429737636       -0.16873143360715
C            0.25456700862697        2.72181726135511       -0.08414283552280
C            0.83958960400281        1.46533315801470        0.09107946699938
C           -2.22527513923783       -0.35733994708727       -0.48755227983489
C           -3.58937034355843       -0.25396979309743       -0.37676193273752
H           -4.62208445447040       -2.75370430714446       -0.00068836348596
H           -3.61017828992699       -2.82570498708248       -1.44875825100740
H           -5.36692155095731       -2.95409520317373       -1.58983420340167
H           -4.64269059919956        0.53949037133255       -2.76422570197972
H           -3.62884749934889       -0.86936769834254       -3.09660492431857
H           -5.38681746811945       -0.99367761452208       -3.23008053109119
H           -7.47941001965789       -1.38341570494005       -1.66151485561743
H           -9.27334245949260       -0.29538030375287       -0.36773677543770
H           -8.73940640873247        1.26496695575305        1.44746225537810
H           -6.38886086925203        1.77488921182380        2.01350899545625
H           -3.80313329276121        1.95316245685710        2.20668287166445
H           -1.35536209784611        1.77511457130951        2.00076499729445
H           -1.10794246542753       -2.08409322427358        0.83035487394488
H           -0.05047065025012       -4.29258647834584        0.79180741526261
H            2.36312448486013       -4.49798618800197        0.26758321243773
H            3.70904049965270       -2.48612863627955       -0.08922423204733
H            4.48331059285017        1.08494999568420       -1.84004544957071
H            6.93383504537331        0.90483400257571       -1.99427012574055
H            6.99196951079516       -1.35454062810716        1.64336647029828
H            4.54184008758370       -1.16661162975323        1.79576224244668
H            4.08533110375650        2.49936090832339        0.10665220053668
H            3.00698512627838        4.68610446161348       -0.09681902390715
H            0.54103932620859        4.83441884546681       -0.29304626064043
H           -0.81893728668665        2.80089392598145       -0.16042145414574
H           -1.77182792805380       -0.97847870657897       -1.24672539677858
