62
 energy: -92.746708952310 gnorm: 0.000072680822 xtb: 6.7.1 (edcfbbe)
C           -4.56527417207680       -2.27714578897204       -1.43797053824040
C           -4.65671668855014       -0.75206150290981       -1.32578028737625
C           -4.56831217079998       -0.10605556531436       -2.71165087706192
C           -5.91815521053165       -0.33149304245548       -0.60506458120399
C           -7.23118657648168       -0.54245162901317       -0.96603488681700
C           -8.23841067510668       -0.05999006133469       -0.14069552717996
C           -7.93373495082920        0.62206552862411        1.02697664476821
C           -6.61648387910183        0.83806732274159        1.39781179510234
C           -5.60976981823437        0.35824063107096        0.57662826974566
C           -4.16347080347831        0.43131518880708        0.70269946339007
C           -3.36212559144057        0.99804399534315        1.68008174631059
C           -1.98724252252430        0.91895831050728        1.54253919114608
C           -1.40834159833685        0.28003139932348        0.44820888597304
C            0.06167195133383        0.20058155787549        0.32666410818622
C            0.70389986543650       -1.04117680880588        0.44054597426699
C           -0.01943028808069       -2.23455087488684        0.70274300061632
C            0.60971000465199       -3.43827678304720        0.78469750155101
C            2.00448205426929       -3.52442701920456        0.60453405584630
C            2.73800125684296       -2.40118927287479        0.37676737083581
C            2.12516714180434       -1.12204624624437        0.30914854389333
C            2.87177197738805        0.04636268843779        0.09967145454714
C            4.34194955435385       -0.03337639185615       -0.01598062980735
C            4.96987437430963        0.23381230033906       -1.23142714411011
C            6.34284732958182        0.16091692292699       -1.34551952836339
C            7.11304691626853       -0.17941978154292       -0.23233681199215
C            8.51982040605282       -0.25255340204077       -0.34204377380217
N            9.66153553161480       -0.31164049924117       -0.43117117360539
C            6.49306090052697       -0.44712732148555        0.98919566641475
C            5.11893884747386       -0.37532357955017        1.08957690547279
C            2.23251343104639        1.29048405499568       -0.00057956673904
C            2.96136239850506        2.49614279886593       -0.17803572848652
C            2.32649306864133        3.69350293849723       -0.29997228790725
C            0.91973454319443        3.76009804868658       -0.25700537709424
C            0.18542366539438        2.63134674146089       -0.06174265775049
C            0.80823891428693        1.36535887157325        0.09685322199762
C           -2.22030144369961       -0.29096481689306       -0.53307196395731
C           -3.58779510424047       -0.21184764583470       -0.40292975092612
H           -4.63417135799758       -2.73138347709402       -0.45152393456413
H           -3.61895764428458       -2.56682264415121       -1.88927036346788
H           -5.37627287997088       -2.65993375061306       -2.05302050800800
H           -4.63322207827557        0.97674352360067       -2.62645716621874
H           -3.62452512393918       -0.36133424255273       -3.18806302788343
H           -5.38260735844830       -0.45382911086298       -3.34296316244051
H           -7.48081699247352       -1.07265560415951       -1.87378770923910
H           -9.27205947894276       -0.21799259364360       -0.41199065526361
H           -8.73342092741484        0.98880885216683        1.65403856072583
H           -6.38119998261141        1.36956294807239        2.30804969861571
H           -3.79797377580387        1.49249139324050        2.53543331205324
H           -1.34330604445224        1.34912481748061        2.29651401215465
H           -1.08836751049843       -2.16890399842895        0.84021260345905
H            0.04537570952379       -4.33716779383790        0.98483229889067
H            2.48633520749595       -4.48986367916489        0.65314018660979
H            3.80699741729686       -2.47146912963799        0.23941986355191
H            4.36867132176169        0.49397988721861       -2.09050080089516
H            6.82848317889469        0.36493189052702       -2.28858833584121
H            7.09478640545816       -0.70826247182035        1.84742198383756
H            4.63404972236026       -0.57815363216972        2.03343020344906
H            4.03988093488892        2.44961744327832       -0.21187155300362
H            2.89597605687802        4.60130644283809       -0.43478172382360
H            0.43118618065725        4.71587489106200       -0.37635628313926
H           -0.89253751493689        2.68221369794307       -0.02676632758312
H           -1.76366091148003       -0.77969558763594       -1.38213616959753
