54
 energy: -85.149086123525 gnorm: 0.000058261317 xtb: 6.7.1 (edcfbbe)
C           -0.47822394285570        2.66015493108105        1.07652433817304
C            0.31793836676090        0.22521179947802        0.01379818847588
C           -2.40904387238989        2.95785315565402       -0.79595616463131
C            1.51128079165409       -0.25790050869298       -0.71472889783912
C            2.58659554371634        1.30768991818247        0.28066722962028
N            3.99732882000475        0.86807460934289        0.28167505158575
C            4.12460490963009       -1.07599307886493       -0.71204562425804
C            3.03757719264984       -2.07224073073549       -0.96878009744587
C            1.75745814279855       -1.67558465042439       -0.94413371329086
N            0.63439994668394       -2.47322576822655       -0.96227618227142
C           -0.63594898661925       -2.06007268475457       -0.59774565516602
C           -1.69442236171259       -2.83047606573119       -0.88232998477478
C           -3.43792207230135       -2.13027429023170        0.82582140846849
N           -3.56929759949897       -0.85191157858743        1.50558298977790
C           -2.52225009722161        0.14370263494749        1.14485948978090
C           -0.80627861164379       -0.76499904726038        0.14195548239549
O           -1.91203614478003        4.27867249621593       -0.81926993140318
S           -0.86865992093985        1.71573342071406       -0.52725060720447
O            0.20694461978192        3.81682997856419        0.83194495887409
C            1.61111703575442        0.21722418256703        0.76665989141090
C            2.06470776315309       -0.67068696455834        1.83378299723449
C            3.34465740312523       -1.03698952250780        1.80998348080628
C            4.25747814992801       -0.52038535153093        0.75638874930402
C            3.88097943494530        0.39106448118006       -1.11966177080616
C            2.42607784234469        0.84698079511280       -1.18268229979931
C           -1.97149039422623        0.20569427866412       -0.28504499658867
C           -1.40138591348820       -0.80197665722540        1.57069211949471
C           -2.49742079810851       -1.80729957708965        1.91097454167642
C           -3.12290854260616       -2.42678313800703       -0.63209901408154
C           -3.43632110208843       -1.27598673538836       -1.55337730241637
C           -2.88693603697136       -0.07969160484132       -1.40380390133334
H            0.15007834098432        2.00191322643738        1.67226017688895
H           -0.40235956005830        4.42916799438541        0.37961738720566
H           -1.44245306392508        2.83230193095886        1.56105224995384
H           -1.41435909508601        4.39388590996089       -1.63642035378933
H           -2.89289713474828        2.71693174076441       -1.74295790173326
H           -3.13628387067546        2.89568232941568        0.01085570746347
H            2.46016663172837        2.32582441129589        0.64341896223654
H            5.07892127895698       -1.46001749108191       -1.07525346425330
H            3.31642118204756       -3.10501641089870       -1.10993909598699
H            0.73423318834175       -3.43377773449220       -1.25381477409685
H           -1.54181312146511       -3.76216799048166       -1.40809240725479
H           -4.25192560672183       -2.75416790809145        1.19144044536826
H           -2.75119535208149        1.07986015909928        1.64616844796498
H            1.38600296176461       -1.01442849200322        2.60034813534304
H            3.77119713606825       -1.66970524162023        2.57372590107011
H            5.29434379136689       -0.57072858042337        1.10218629648878
H            4.56929512885473        0.82429582289460       -1.84357130029920
H            2.10075532701348        1.47057555370237       -2.00987303725378
H           -0.73063703638924       -0.57073554658133        2.39099159629791
H           -2.52532929592609       -2.32532878173397        2.85879765164558
H           -3.75917824722121       -3.27047041301435       -0.91126280951074
H           -4.08952376663042       -1.47607829049241       -2.38912408051716
H           -3.08225379204577        0.70850514617917       -2.11155995191340
