54
 energy: -85.099322429569 gnorm: 0.000060048884 xtb: 6.7.1 (edcfbbe)
C           -0.45692231492228        2.62449671593614        1.09649828477975
C            0.43551200377136        0.12357751801876       -0.01179465374683
C           -2.36211506689235        2.94890961365313       -0.81438684369169
C            1.35063362484715       -0.23887666650943       -1.12114566655354
C            2.51872073328546        1.26811324348575        0.26192363848501
N            3.94455673790442        0.86882415998111        0.28347152742417
C            4.08649094576194       -1.07155613424497       -0.71320837066735
C            2.99940477152850       -2.02866101264613       -1.01549581047526
C            1.70258638112631       -1.61599093277461       -1.09503602255783
N            0.63790586073172       -2.49904571036161       -0.95394433099943
C           -0.63074591353982       -2.09366088425034       -0.60314918702170
C           -1.69926521042745       -2.85408297616902       -0.87645839949974
C           -3.41080220812061       -2.12511286175501        0.84353416637908
N           -3.51782626373384       -0.84415652745298        1.52032103152290
C           -2.46239973277962        0.13664219677273        1.14738646182732
C           -0.75564091038131       -0.79267876809139        0.13619717466800
O           -1.89697149173340        4.27212012334067       -0.79570383495230
S           -0.81568767188687        1.70074435759166       -0.52480662326880
O            0.20494357714520        3.79364374208174        0.86211143740341
C            1.49826940571024        0.40769525490477        0.98497004228518
C            1.98268448663331       -0.56318816280141        1.89475877202688
C            3.27448664413338       -0.97137535576413        1.83576208161171
C            4.19377795834877       -0.50068362467159        0.78222244814403
C            3.85227363941027        0.38673718278496       -1.11918683068559
C            2.38990342325866        0.82817815747102       -1.21303164757751
C           -1.91217908059604        0.19539573749495       -0.28284568428063
C           -1.34762685547353       -0.81714982960773        1.56652756491881
C           -2.45162682642303       -1.81218982470826        1.91535498197705
C           -3.11817452388998       -2.42497469958012       -0.61713229974914
C           -3.40732177893064       -1.26876254345511       -1.53901452750101
C           -2.83140911610221       -0.08294723219987       -1.40174187757867
H            0.19887812880576        1.95424037635337        1.66170150908203
H           -0.41433332543874        4.41506943469824        0.43716312406210
H           -1.42093215521068        2.76788152814311        1.58923601739837
H           -1.40459038735120        4.43525419308789       -1.60828388037667
H           -2.80487826586490        2.70319091095512       -1.77870705786970
H           -3.10032447113243        2.84116593457968       -0.02332256962264
H            2.42082453448065        2.32965214700580        0.50044481158531
H            5.05270142705328       -1.46227153131577       -1.03681287243749
H            3.22190301042022       -3.08263749013323       -0.93071158817688
H            0.76664183082588       -3.46018898184438       -1.22744856936387
H           -1.56141818728286       -3.78860661131867       -1.40017263033449
H           -4.22627826941529       -2.73952370029697        1.22177563708413
H           -2.68148659880032        1.07405746102437        1.65085536324030
H            1.31395144200598       -1.04403581544348        2.59609181169314
H            3.64588937080838       -1.71522731304240        2.52400357180034
H            5.23175649988817       -0.56775189853546        1.12312314695153
H            4.54471881990799        0.82100753326185       -1.83914037334991
H            2.17058248709294        1.58773593314040       -1.96222039457896
H           -0.67795232120780       -0.58730371052014        2.38595137371294
H           -2.47636256070835       -2.32801955681520        2.86436137865518
H           -3.77476220093720       -3.25387770319111       -0.89314307448559
H           -4.06276109191344       -1.45876187759031       -2.37553994071261
H           -3.00741682423759        0.69770517399665       -2.12303100387571
