54
 energy: -85.130881617342 gnorm: 0.000026869070 xtb: 6.7.1 (edcfbbe)
C            1.06840663857900        3.32378695577058       -0.10345643074040
C            0.24709062863075        0.44180431699017        0.18652448428263
C           -0.38886509444308        2.24967786958822       -2.17231558032797
C            1.41604444905722       -0.28931769929904       -0.37224962666659
C            2.68491979509915        0.95736288359693        0.83871592202150
N            3.91888904883319        0.17824548414770        1.04908709763607
C            3.74980382501549       -1.73722705037462        0.02331978790206
C            2.51130692378000       -2.42699937804118       -0.43459746112676
C            1.37207088973135       -1.73706149419147       -0.59354266089409
N            0.13353744825015       -2.28473781240459       -0.80845233852978
C           -1.06500478798998       -1.67992333529619       -0.45433992816930
C           -2.21304699187630       -2.30070134322806       -0.75189996771226
C           -3.93822111946677       -1.21588387972641        0.77428245053298
N           -3.91256557960982        0.12122291728267        1.34153646094985
C           -2.69650441411986        0.90651212386365        0.96272513480228
C           -1.06566897476044       -0.33581923062496        0.20097192087818
O           -1.24922409767479        3.19961998370799       -2.65924807825988
S           -0.47378783906599        2.10862445798614       -0.30234781904210
O            0.65070651804785        4.51121732124586       -0.70237701853065
C            1.39329489605142        0.16817740134901        1.11942639788966
C            1.43866820628620       -0.80324679680112        2.21430812946302
C            2.57066969674214       -1.48634716996572        2.37358885993085
C            3.75486191028084       -1.22537863108040        1.51344883677967
C            3.92263541996065       -0.26011304511477       -0.36707190685836
C            2.65010786192702        0.53977436358335       -0.64847828424040
C           -2.01172024903291        0.74832378630703       -0.39547115169656
C           -1.77239240827113       -0.14728314327063        1.56718663383946
C           -3.02903151675293       -0.94048846973550        1.89918166190583
C           -3.57661020848616       -1.67984185941800       -0.62826394092124
C           -3.65693184001620       -0.56942871321258       -1.64485073312899
C           -2.90448284495320        0.51691634916668       -1.54631190330090
H            2.00257776715562        3.05115121550544       -0.57965238103067
H           -0.22839692888567        4.73843064119135       -0.37579936495500
H            1.19815948476140        3.44107721959199        0.97858805100981
H           -2.16375699985686        2.96216422090892       -2.45484769933118
H            0.61873912298866        2.56707001299709       -2.42939473399975
H           -0.59343856261854        1.23680685429826       -2.53604386819142
H            2.78116207080359        1.96101665211198        1.24103576464123
H            4.63120106715964       -2.34068018574885       -0.19464573100249
H            2.53659695454196       -3.49902585390903       -0.55050385017143
H            0.09083662818838       -3.26902662359593       -1.02757247680540
H           -2.16991125842894       -3.27055752334308       -1.22775944807882
H           -4.85800990674087       -1.68399185981214        1.12166038866658
H           -2.78889496485100        1.91815863136176        1.35610109905416
H            0.58527868687582       -0.96686836471213        2.85195762524866
H            2.68379777572930       -2.20961743615608        3.16644833562078
H            4.66938912074135       -1.52382996886726        2.03355687843666
H            4.79879167765010        0.00048604197803       -0.95819325084298
H            2.64819800121378        1.19750485608353       -1.51219438823183
H           -1.14531728161607        0.07698488909155        2.42299461587494
H           -3.19411364683377       -1.36985846406379        2.87749676454041
H           -4.31359373830521       -2.44241932619585       -0.89361162044812
H           -4.32142546488427       -0.71306813996550       -2.48464007386953
H           -2.99682379453180        1.28662334846698       -2.30401158477186
