54
 energy: -85.102200258282 gnorm: 0.000061175097 xtb: 6.7.1 (edcfbbe)
C           -0.55966438266346        2.81596674954945        0.89796066281723
C            0.47610045900213        0.20161942450769       -0.03613419421706
C           -2.46438629553681        2.86385502032415       -1.10406744995026
C            1.40466384034240       -0.15095961388846       -1.12583907553050
C            2.53559680693852        1.40408931586410        0.23885676611912
N            3.96196675288593        1.00518278814126        0.27810875424108
C            4.15227007226366       -0.92892437539587       -0.71967981483243
C            3.08464582534139       -1.91011879401502       -1.02449693156770
C            1.78062022977590       -1.52214896934684       -1.08875320518812
N            0.73518678300721       -2.42349190691464       -0.93621429735536
C           -0.54118248497732       -2.04737330212507       -0.57834241845295
C           -1.58548355801798       -2.85216437698870       -0.81517766866976
C           -3.34105721632476       -2.10052580239483        0.86091983057692
N           -3.48195667078471       -0.79203302341638        1.47842130725253
C           -2.44343236603436        0.19471949602751        1.07812657901619
C           -0.70184435727090       -0.72810954691386        0.12128637070985
O           -2.19641798023917        4.21238354448175       -0.91678570033364
S           -0.88026606136932        1.74472635034420       -0.67430045275591
O           -0.28653121372086        2.13050408670364        2.01857808080327
C            1.49545588041794        0.57394296807643        0.98629717150978
C            2.00480597384005       -0.42370129823422        1.88898851281884
C            3.27542945501916       -0.85854469917441        1.79782561903241
C            4.21809682642286       -0.36461767586154        0.77124330775154
C            3.89155183166964        0.52442556168898       -1.12658559751970
C            2.42148956937868        0.93719469953274       -1.22870607911420
C           -1.88645704672148        0.20381398485902       -0.35301778859139
C           -1.31403851010930       -0.71943866244355        1.54415239252806
C           -2.40059643644978       -1.72044990281889        1.92533065281675
C           -3.01989494600597       -2.46290001646689       -0.57902158913447
C           -3.33763375204932       -1.35836879872530       -1.55181762343136
C           -2.79249244697663       -0.15389407869216       -1.46209593908728
H           -1.45999145080026        3.41148086963632        1.03815813242298
H            0.54841590887750        1.53922142949095        1.84206395134089
H            0.26651981914163        3.44521968184521        0.54357182250535
H           -1.57682713979913        4.51540852066190       -1.58968139497764
H           -2.70998971074496        2.64140326327691       -2.14374326704915
H           -3.28190344061177        2.58639885172731       -0.44276747146195
H            2.46164328920901        2.47446768604440        0.45136278107652
H            5.12891822272285       -1.29870311293121       -1.03552951693557
H            3.33092909318104       -2.95882022253370       -0.94529807445790
H            0.88929227377785       -3.38791417895407       -1.18368925555774
H           -1.41636584647574       -3.79814771723462       -1.30881094705228
H           -4.15049322018576       -2.71262799237352        1.25548092567491
H           -2.66770966694009        1.15093820219420        1.54179455807099
H            1.34290648715557       -0.88202909229200        2.61064123246521
H            3.64021178616971       -1.62060610889810        2.47016842168011
H            5.24508677237179       -0.41576583274159        1.14720168523034
H            4.57974455271054        0.97627247198018       -1.83930955320185
H            2.18674035323439        1.67757024944867       -1.99298557656810
H           -0.66808379143516       -0.44089458400527        2.36644293704556
H           -2.42292271030134       -2.19229059517864        2.89700556401643
H           -3.64498726809303       -3.32587879043899       -0.82157009554563
H           -3.98644265017705       -1.59897832590524       -2.38038750594044
H           -2.99009535028167        0.59029211135969       -2.21518426078828
