  73
       -121.37412322
 C         -7.0178546409        3.1048371815       -2.7980222355
 C         -5.6747328524        2.7884746144       -2.8955516734
 C         -5.0706967899        1.9888367779       -1.9406131459
 C         -5.8018426217        1.4975300448       -0.8631407292
 C         -7.1700167563        1.8044913529       -0.7863039663
 C         -7.7663855137        2.6054801842       -1.7443709619
 O         -7.9693537127        1.3251716294        0.2157004740
 C         -7.3936068137        0.5207124469        1.1613224448
 C         -8.2148577377        0.0374192062        2.1649521964
 C         -7.6923163548       -0.7648748865        3.1663656299
 C         -6.3431846526       -1.0702904034        3.1655923841
 C         -5.5155709273       -0.5921950304        2.1642787570
 C         -6.0270668737        0.1970821609        1.1383921190
 N         -5.2285623104        0.6937082226        0.1148384307
 C         -3.8450453307        0.3848314710        0.0639361408
 C         -2.8978777738        1.3975688176        0.2749438468
 C         -1.5667970902        1.0879572804        0.2179737370
 C         -1.1353414418       -0.2255756950       -0.0376094125
 C         -2.0868946965       -1.2558405992       -0.2435087310
 C         -3.4425883114       -0.9082663844       -0.1920604574
 C         -1.6351173799       -2.6010790393       -0.5019898241
 C         -2.5125628600       -3.6774083221       -0.7054156440
 C         -2.0477632693       -4.9459921393       -0.9537622245
 C         -0.6760619564       -5.1975643069       -1.0091369251
 C          0.2091534634       -4.1704438701       -0.8098255538
 C         -0.2467604763       -2.8672862133       -0.5543275707
 C          0.7123021966       -1.8257855450       -0.3473963893
 N          2.0106919131       -2.0761891696       -0.3900224397
 C          2.9185150301       -1.1197146718       -0.2063749222
 C          4.2867286386       -1.3663478061       -0.2458799587
 C          5.2219686025       -0.3548959556       -0.0559858715
 C          6.6484120991       -0.6827962897       -0.1683954426
 C          7.5202154425        0.0835605975       -0.9426759232
 C          8.8510604387       -0.2870797875       -1.0128226588
 N          9.3548200781       -1.3382189375       -0.3860786656
 C          8.5278649369       -2.0743506639        0.3383662274
 C          7.1791370073       -1.7995562257        0.4776846965
 C          4.7809223076        0.9563604437        0.1930152308
 C          5.7245324925        2.0464299146        0.4733863681
 C          5.6000296865        3.2851896778       -0.1548265318
 C          6.5077300773        4.2837126354        0.1520695200
 N          7.4930876999        4.1362245783        1.0224510683
 C          7.6042926554        2.9663903131        1.6312389606
 C          6.7571542237        1.8976331833        1.3997343213
 C          3.4184178345        1.2272640559        0.2306452774
 C          2.4639238499        0.2307748085        0.0416235774
 N          1.1566937753        0.4673662179        0.0930257231
 C          0.2639861534       -0.4981981654       -0.0889710607
 H         -7.4882870109        3.7296792604       -3.5402577887
 H         -5.0868336516        3.1601872796       -3.7202296556
 H         -4.0257736392        1.7368165581       -2.0304039705
 H         -8.8181915009        2.8211558383       -1.6475810611
 H         -9.2588277533        0.3053662495        2.1437757228
 H         -8.3381185514       -1.1398377080        3.9441349096
 H         -5.9236550615       -1.6832870029        3.9480194453
 H         -4.4626833717       -0.8261217217        2.1780244809
 H         -3.2303439788        2.4035468212        0.4820310334
 H         -0.8112192290        1.8420488600        0.3755428552
 H         -4.2056153006       -1.6529609837       -0.3559386010
 H         -3.5786536147       -3.5189147045       -0.6691915926
 H         -2.7480454286       -5.7535046368       -1.1080724402
 H         -0.3178525601       -6.1965920593       -1.2068670739
 H          1.2755423444       -4.3328620612       -0.8430256041
 H          4.6134175640       -2.3720521329       -0.4613768017
 H          7.1616294326        0.9427082430       -1.4877268757
 H          9.5557880388        0.2857899869       -1.6016109391
 H          8.9755460656       -2.9272625288        0.8324232732
 H          6.5502938628       -2.4252708108        1.0929037981
 H          4.8211538458        3.4531857215       -0.8832110842
 H          6.4484944777        5.2544611325       -0.3234313710
 H          8.4166881569        2.8864053890        2.3418618032
 H          6.8857402620        0.9697348859        1.9350329555
 H          3.0713293292        2.2268194042        0.4433205375
  73
       -121.37399589
 C         -7.3652890869        1.7041671993       -3.1654333791
 C         -6.0272635950        1.3676112488       -3.2667834626
 C         -5.3079494398        1.0036813456       -2.1414289319
 C         -5.9201748622        0.9646716175       -0.8923887033
 C         -7.2750752809        1.3223271260       -0.7972627996
 C         -7.9870625748        1.6849771046       -1.9271815710
 O         -7.9428111202        1.3399761163        0.3974688577
 C         -7.2461856767        0.9924906416        1.5233364167
 C         -7.9302119451        1.0119322218        2.7259918792
 C         -7.2844082008        0.6556661914        3.8992212701
 C         -5.9558243340        0.2715189297        3.8630967703
 C         -5.2640115624        0.2505838877        2.6643131055
 C         -5.8925562951        0.6211633855        1.4793987018
 N         -5.2304904694        0.6076905668        0.2594924219
 C         -3.8475625057        0.2917330022        0.1965857274
 C         -2.9065919554        1.2058796769        0.6916920205
 C         -1.5751516964        0.9097954362        0.5918632064
 C         -1.1398543951       -0.2904709113        0.0032627371
 C         -2.0861590081       -1.2299063004       -0.4772069686
 C         -3.4430003064       -0.8996962270       -0.3646871828
 C         -1.6268119463       -2.4678035098       -1.0579469814
 C         -2.4987891392       -3.4602951645       -1.5318828357
 C         -2.0276442101       -4.6295190713       -2.0776839204
 C         -0.6546792672       -4.8605343898       -2.1758104503
 C          0.2253136435       -3.9121067674       -1.7237703337
 C         -0.2369999596       -2.7113618006       -1.1616578683
 C          0.7170548043       -1.7476372738       -0.7047700326
 N          2.0169780996       -1.9611914975       -0.8278054177
 C          2.9183443810       -1.0731640754       -0.4126421113
 C          4.2881240094       -1.2747519651       -0.5451614576
 C          5.2153586604       -0.3333213718       -0.1115835183
 C          6.6448951727       -0.6433235041       -0.2328045973
 C          7.1691869960       -1.1588387742       -1.4183546134
 C          8.5210749812       -1.4467139413       -1.4818641562
 N          9.3568112858       -1.2679206507       -0.4718463846
 C          8.8595779476       -0.7921925567        0.6587582122
 C          7.5264440769       -0.4677027570        0.8345421375
 C          4.7647598827        0.8641870311        0.4707115442
 C          5.6956409462        1.9287604342        0.8669150874
 C          6.7064103316        2.3690524342        0.0118034875
 C          7.5385186723        3.3904448914        0.4334371291
 N          7.4321888115        3.9847394909        1.6112155708
 C          6.4676262799        3.5767227570        2.4196107097
 C          5.5765563561        2.5669761797        2.1011989005
 C          3.4010600343        1.0813395905        0.6253358788
 C          2.4548808288        0.1517744276        0.2009986364
 N          1.1465091667        0.3539131235        0.3197871126
 C          0.2605320884       -0.5358600333       -0.1107921909
 H         -7.9261893644        1.9869286933       -4.0418748534
 H         -5.5317547020        1.3888257014       -4.2249209705
 H         -4.2621664204        0.7533826593       -2.2265298598
 H         -9.0256183067        1.9508737052       -1.8134495411
 H         -8.9672995164        1.3064337672        2.7201480673
 H         -7.8233230108        0.6735118085        4.8329795739
 H         -5.4487816011       -0.0181436066        4.7702211931
 H         -4.2308176787       -0.0588898503        2.6395467461
 H         -3.2440895592        2.1309129323        1.1341929633
 H         -0.8219740508        1.5935567253        0.9517714153
 H         -4.2039214349       -1.5735569007       -0.7260965502
 H         -3.5657246702       -3.3150748874       -1.4698250130
 H         -2.7236537721       -5.3752683414       -2.4323704433
 H         -0.2916805779       -5.7817973696       -2.6059791001
 H          1.2925306898       -4.0604382433       -1.7853566774
 H          4.6233100848       -2.2067220025       -0.9737442394
 H          6.5327415974       -1.3106866940       -2.2770034112
 H          8.9636869755       -1.8398370519       -2.3882763538
 H          9.5715674646       -0.6673995041        1.4644336948
 H          7.1732924893       -0.0969680731        1.7842306985
 H          6.8290539015        1.9297458784       -0.9659230487
 H          8.3340200263        3.7563895737       -0.2028992188
 H          6.4101533533        4.0898384585        3.3712084461
 H          4.8141817301        2.2630090857        2.8024750136
 H          3.0449218616        2.0067356403        1.0514358467
  73
       -121.37387838
 C         -7.0575709084        2.6568623136       -3.0698895609
 C         -5.7237463339        2.2997081484       -3.1559909217
 C         -5.1063777857        1.6366890333       -2.1093417586
 C         -5.8175797615        1.3241205328       -0.9550913736
 C         -7.1736946177        1.6814342071       -0.8802416976
 C         -7.7828994343        2.3443139788       -1.9309036562
 O         -7.9426149693        1.3928665475        0.2150523604
 C         -7.3475319747        0.7355527170        1.2580428629
 C         -8.1304895008        0.4541834914        2.3636301387
 C         -7.5816444227       -0.1970163653        3.4570958071
 C         -6.2469223119       -0.5609190424        3.4426092700
 C         -5.4566067395       -0.2845170218        2.3401399492
 C         -5.9940777208        0.3606363733        1.2309702745
 N         -5.2319748961        0.6553179700        0.1099593731
 C         -3.8464437270        0.3369678666        0.0736041342
 C         -2.9040105254        1.3451937167        0.3194949118
 C         -1.5726906938        1.0354206788        0.2753099272
 C         -1.1408221211       -0.2703500464       -0.0157644227
 C         -2.0884698586       -1.2943506358       -0.2651795231
 C         -3.4458244761       -0.9498909782       -0.2091072587
 C         -1.6294839096       -2.6263615010       -0.5749038436
 C         -2.5016812457       -3.6988380449       -0.8178145804
 C         -2.0310674211       -4.9533454419       -1.1208225144
 C         -0.6583292073       -5.1941737278       -1.1950751846
 C          0.2220395254       -4.1704682495       -0.9599282989
 C         -0.2396072873       -2.8818635593       -0.6471929052
 C          0.7153981488       -1.8449548061       -0.4009568518
 N          2.0154613718       -2.0799138949       -0.4773477157
 C          2.9168718503       -1.1272590568       -0.2451858808
 C          4.2867783638       -1.3500251595       -0.3388394453
 C          5.2137801150       -0.3446509905       -0.0862644575
 C          6.6395997275       -0.6325679309       -0.2829348038
 C          7.4633133073        0.2243248334       -1.0140239007
 C          8.7948422287       -0.1111311158       -1.1801981206
 N          9.3427903518       -1.2091261568       -0.6844175264
 C          8.5616226822       -2.0289796891       -0.0001723785
 C          7.2164356882       -1.7964797428        0.2252651491
 C          4.7642196123        0.9312220261        0.2965076092
 C          5.6997324146        2.0002943393        0.6684085098
 C          5.5378478663        3.2988922085        0.1858951405
 C          6.4351110831        4.2751356397        0.5812688924
 N          7.4450526947        4.0515564345        1.4062492758
 C          7.5932587523        2.8232375458        1.8758668048
 C          6.7593582757        1.7698348088        1.5461743645
 C          3.4000400375        1.1807852677        0.3811169884
 C          2.4537299905        0.1948896661        0.1133432261
 N          1.1452325831        0.4193565314        0.1814096145
 C          0.2595376512       -0.5374648557       -0.0669904030
 H         -7.5382914632        3.1743034456       -3.8846660308
 H         -5.1538868915        2.5348762628       -4.0413713675
 H         -4.0674224394        1.3550619615       -2.1815891293
 H         -8.8247615819        2.6049340188       -1.8368627678
 H         -9.1650239130        0.7571705096        2.3489631944
 H         -8.1976890690       -0.4126410215        4.3154582753
 H         -5.8109762774       -1.0625078730        4.2923655930
 H         -4.4148790347       -0.5647131274        2.3335779904
 H         -3.2411223785        2.3469771682        0.5386971880
 H         -0.8174903304        1.7835101555        0.4606322432
 H         -4.2088024809       -1.6896587425       -0.3943190767
 H         -3.5684997296       -3.5482954391       -0.7673039594
 H         -2.7273778291       -5.7585500285       -1.3028989945
 H         -0.2956086630       -6.1823184874       -1.4349253171
 H          1.2891972684       -4.3245617127       -1.0066799819
 H          4.6204106106       -2.3285972689       -0.6480630818
 H          7.0666104870        1.1265488886       -1.4530009395
 H          9.4627476740        0.5304882967       -1.7404247333
 H          9.0447628525       -2.9173645852        0.3862396626
 H          6.6264610222       -2.4919031962        0.8028767655
 H          4.7370439104        3.5315189940       -0.4996984019
 H          6.3445216406        5.2923815554        0.2220889100
 H          8.4250918885        2.6807053753        2.5535237568
 H          6.9190919425        0.7907114281        1.9702008970
 H          3.0449809826        2.1520877360        0.6895117787
  73
       -121.37121593
 C         -8.4182644538        0.5636102533       -2.3802207500
 C         -7.1361666687        0.4617369205       -2.8899797783
 C         -6.0393145192        0.5083751725       -2.0467536551
 C         -6.2073077647        0.6501946546       -0.6723772570
 C         -7.5116354362        0.7855838420       -0.1690256000
 C         -8.6033526025        0.7341850058       -1.0179122213
 O         -7.7645245280        0.9845395267        1.1608559719
 C         -6.6969308953        1.0099919720        2.0159760382
 C         -6.9701141080        1.1842614107        3.3618076271
 C         -5.9392285645        1.1913042147        4.2870601168
 C         -4.6371165675        1.0030620933        3.8605464812
 C         -4.3565672669        0.8283547204        2.5165190733
 C         -5.3756156107        0.8515502300        1.5681754958
 N         -5.1317651596        0.6929715319        0.2061569671
 C         -3.8003988012        0.5097647181       -0.2419323873
 C         -2.8662729641        1.5418547632       -0.0584014261
 C         -1.5475902875        1.3086009731       -0.3339341661
 C         -1.1207332074        0.0606259712       -0.8211271703
 C         -2.0753247526       -0.9399013202       -1.1285514185
 C         -3.4123074069       -0.6922871902       -0.7956964138
 C         -1.6319672055       -2.1836175243       -1.7084631767
 C         -2.5178310897       -3.1417128996       -2.2227176156
 C         -2.0622821210       -4.3227787220       -2.7572382647
 C         -0.6948962231       -4.5996589040       -2.7941787997
 C          0.1984489329       -3.6790762704       -2.3097662091
 C         -0.2466291123       -2.4604272093       -1.7745121151
 C          0.7143424368       -1.5100822974       -1.3020767212
 N          1.9979851854       -1.8158496519       -1.2134026270
 C          2.8940924927       -0.9510476435       -0.7395625595
 C          4.2224408455       -1.2933728820       -0.5100882759
 C          5.1335099251       -0.3858029117        0.0197248657
 C          6.4651619055       -0.8690200125        0.4034249796
 C          7.2227688375       -1.6795855034       -0.4413248263
 C          8.4514039218       -2.1391553142       -0.0003011953
 N          8.9549522177       -1.8606208940        1.1909933265
 C          8.2332821977       -1.1004105668        1.9991641227
 C          6.9955976865       -0.5836985133        1.6627900415
 C          4.7290563354        0.9387064988        0.2654723403
 C          5.6780699977        1.9608132349        0.7223254392
 C          6.9413074391        2.0957609978        0.1450592108
 C          7.7855873457        3.0875078713        0.6109078133
 N          7.4644172646        3.9302792774        1.5794647252
 C          6.2630884100        3.8122974902        2.1210367927
 C          5.3380124445        2.8590218835        1.7342557795
 C          3.4070607767        1.3029429386        0.0416620380
 C          2.4600120954        0.3899787119       -0.4156139339
 N          1.1720190561        0.6936787368       -0.5367613149
 C          0.2755114274       -0.2122731078       -0.9081410839
 H         -9.2734829092        0.5211426965       -3.0355176992
 H         -6.9809474063        0.3479733240       -3.9515325775
 H         -5.0423954508        0.4423327433       -2.4535963609
 H         -9.5877974180        0.8336871271       -0.5897298106
 H         -7.9980514281        1.3081234008        3.6621808917
 H         -6.1578760878        1.3318987705        5.3334760450
 H         -3.8270289504        0.9872515896        4.5729108522
 H         -3.3383665089        0.6669428785        2.2010033527
 H         -3.1964868593        2.4943915127        0.3277720376
 H         -0.7973041351        2.0642229970       -0.1596449350
 H         -4.1559734009       -1.4636845107       -0.9237598614
 H         -3.5791069546       -2.9463435813       -2.2215585191
 H         -2.7655059327       -5.0391357154       -3.1555300730
 H         -0.3447506191       -5.5315960082       -3.2118726255
 H          1.2620869878       -3.8598665030       -2.3367292588
 H          4.5226861393       -2.3118100615       -0.7029510764
 H          6.8634014667       -1.9298347502       -1.4279954820
 H          9.0690561437       -2.7665363337       -0.6301835554
 H          8.6725469360       -0.9010266697        2.9681576795
 H          6.4421163209        0.0161101626        2.3684696496
 H          7.2510563740        1.4452200164       -0.6579420181
 H          8.7734059531        3.2185519128        0.1883679881
 H          6.0355590265        4.5209390548        2.9071935519
 H          4.3771332143        2.7959502151        2.2221040514
 H          3.0843081760        2.3162417523        0.2245051997
