  69
       -105.95554294
 C          5.7820588605       -4.5578630278       -0.2903444454
 C          5.3839148469       -3.4369865271        0.4191266708
 C          4.0419789600       -3.1248668878        0.5292511762
 C          3.0737602356       -3.9299592464       -0.0682849918
 C          1.6478425530       -3.5847772311        0.0387922025
 C          0.6703120315       -4.5674162703        0.2024835965
 C         -0.6680322694       -4.2223191793        0.2944912015
 C         -1.0602294600       -2.8994916526        0.2281987082
 C         -0.0949228534       -1.9057616216        0.0699291991
 C         -0.4649382805       -0.4947268265        0.0049210622
 N         -1.7402691370       -0.1566184195       -0.0067588694
 C         -2.0500358724        1.1735174519       -0.0791453117
 C         -3.4238875177        1.5771889945       -0.0837576203
 C         -3.7694824573        2.9367169670       -0.1532986520
 C         -5.0949085134        3.3089890172       -0.1483311686
 C         -6.0980969185        2.3538164495       -0.0776447885
 C         -5.7760800827        0.9951568819       -0.0081215712
 C         -6.8374335759       -0.0193159479        0.0713344063
 C         -6.7091163032       -1.1152401485        0.9227010156
 C         -7.7114560679       -2.0633047751        1.0052636687
 C         -8.8555583996       -1.9369893195        0.2344736539
 C         -8.9915154497       -0.8546271354       -0.6192487945
 C         -7.9930606623        0.0978410381       -0.6986838263
 C         -4.4425482162        0.6190001605       -0.0113875208
 N         -1.0784119253        2.0717161737       -0.1303808515
 C          0.1928461844        1.7148414126       -0.1020088531
 C          1.2558941334        2.6744487488       -0.1448384559
 C          1.0035600271        4.0459901209       -0.2983576621
 C          2.0574011973        4.9324498396       -0.3421067199
 C          3.3667442361        4.4882172415       -0.2291595926
 C          3.6394517264        3.1263980667       -0.0677082823
 C          5.0185784343        2.6357288395        0.0704161986
 C          5.9617583499        3.3517674020        0.8052262898
 C          7.2523233323        2.8773888972        0.9471209753
 C          7.6246332597        1.6808111585        0.3568244647
 C          6.6966473300        0.9611161001       -0.3778529070
 C          5.4056260911        1.4332804560       -0.5198438159
 C          2.5802347089        2.2349320159       -0.0304173806
 N          0.5152754978        0.3903144686       -0.0350985469
 C          1.2491877987       -2.2569652831       -0.0260984051
 C          3.4857755421       -5.0557776552       -0.7776278992
 C          4.8287513973       -5.3656077635       -0.8875251107
 H          6.8306667909       -4.8013465007       -0.3774854004
 H          6.1213189942       -2.8037429820        0.8908417889
 H          3.7391640580       -2.2597500212        1.1007886556
 H          0.9627407171       -5.6044743888        0.2765830189
 H         -1.4113683147       -4.9957381282        0.4224616762
 H         -2.0994358229       -2.6190183873        0.2992392694
 H         -2.9808670738        3.6712139343       -0.2084543931
 H         -5.3586353568        4.3558768679       -0.1953986892
 H         -7.1331752468        2.6596047645       -0.0513657986
 H         -5.8263936829       -1.2087751416        1.5383880878
 H         -7.6024784164       -2.9036305626        1.6756861403
 H         -9.6380623363       -2.6787230292        0.2988125136
 H         -9.8797299748       -0.7538996654       -1.2262061960
 H         -8.0967093470        0.9306433485       -1.3789695289
 H         -4.1646993220       -0.4236158508        0.0188191081
 H         -0.0175341236        4.3839334634       -0.3845472961
 H          1.8637806541        5.9878560190       -0.4700596363
 H          4.1811402231        5.1945291638       -0.2877982036
 H          5.6733687577        4.2750853138        1.2862729740
 H          7.9709466471        3.4409467090        1.5245519480
 H          8.6332638672        1.3111668671        0.4694118138
 H          6.9804192246        0.0283612207       -0.8439824772
 H          4.6934606721        0.8752900781       -1.1100631744
 H          2.7549690028        1.1801515139        0.1169888107
 H          1.9761784048       -1.4734039345       -0.1738724870
 H          2.7498000647       -5.6791959286       -1.2643245412
 H          5.1337780157       -6.2396182175       -1.4446443611
