  84
       -126.53866722
 C          3.6363360150        3.7638503961        0.9628641430
 C          3.8480052409        2.8649303018       -0.2697161475
 C          4.5667244305        3.6486424807       -1.3838087784
 C          4.7135488966        1.6886320573        0.1347211427
 C          5.9970255152        1.9081983385        0.6151386910
 C          6.8203157683        0.8681485497        1.0065960527
 C          6.3594467214       -0.4360005983        0.9238122874
 C          5.0895796287       -0.6843204539        0.4526482841
 C          4.2549253144        0.3667185904        0.0521545599
 N          2.9912950366        0.0829755619       -0.4212107564
 C          2.5119403970       -1.2570379323       -0.3725997501
 C          2.6815732825       -2.1209864733       -1.4507403920
 C          2.1251763967       -3.3827914742       -1.4156526278
 C          1.3586591546       -3.7866375576       -0.3184875549
 C          0.6592851375       -5.0832729657       -0.3397331737
 O          1.1360954871       -6.1039675790       -0.8515123397
 C         -0.6722371261       -5.0834698009        0.3366795970
 O         -1.1473496803       -6.1039573676        0.8505219615
 C         -1.3723822528       -3.7876639745        0.3132528711
 C         -1.2849728073       -2.9465117849       -0.8023651548
 C         -1.8530528616       -1.6929376973       -0.7731111308
 C         -2.5197964769       -1.2555703833        0.3668719687
 N         -2.9924788108        0.0866801563        0.4172558960
 C         -2.1206386920        1.0701424762        0.8368814414
 C         -0.8608689845        0.7091619641        1.3310150146
 C          0.0350470042        1.6691336566        1.7448820927
 C         -0.3049114729        3.0088970134        1.6706173807
 C         -1.5525502886        3.3670544505        1.1940567005
 C         -2.4800820356        2.4232091087        0.7780233090
 C         -3.8369369832        2.8727528878        0.2758930226
 C         -3.6326876502        3.7743920238       -0.9558351492
 C         -4.5421766072        3.6559072141        1.3990987582
 C         -4.7109265057        1.7011517591       -0.1241006830
 C         -5.9973507666        1.9274169855       -0.5933446628
 C         -6.8286905152        0.8918050253       -0.9793549410
 C         -6.3727617491       -0.4145180437       -0.9035971570
 C         -5.1001406932       -0.6694909688       -0.4435257553
 C         -4.2579306486        0.3769439698       -0.0469473837
 C         -2.6956216007       -2.1207360374        1.4431202226
 C         -2.1418156256       -3.3836730456        1.4083882113
 C          1.2749683200       -2.9459214737        0.7975847590
 C          1.8466593516       -1.6939453131        0.7684008412
 C          2.1271915479        1.0711564538       -0.8455870991
 C          0.8677956414        0.7170142955       -1.3456037290
 C         -0.0205711089        1.6817088120       -1.7647079550
 C          0.3271319378        3.0195459898       -1.6907399538
 C          1.5741255203        3.3709893868       -1.2074864645
 C          2.4936277362        2.4222915687       -0.7846805074
 H          3.1294952371        3.2037703864        1.7464830759
 H          4.5869808574        4.1159340702        1.3533991247
 H          3.0296499313        4.6289818779        0.7104234169
 H          5.5372064480        4.0012487668       -1.0467927040
 H          3.9808714012        4.5099686725       -1.6917804429
 H          4.7161527807        3.0073940009       -2.2504380462
 H          6.3710863723        2.9179067592        0.6898896691
 H          7.8136624118        1.0745529440        1.3732671959
 H          6.9887868564       -1.2592927819        1.2247051168
 H          4.7279917870       -1.6984738308        0.3874845038
 H          3.2355219099       -1.7897936155       -2.3167592511
 H          2.2385959018       -4.0585527316       -2.2493357733
 H         -0.7699845867       -3.2834097157       -1.6867249429
 H         -1.7801252197       -1.0357224103       -1.6263875460
 H         -0.5938018636       -0.3332970896        1.3808555687
 H          1.0020249814        1.3736577288        2.1243993353
 H          0.3913323103        3.7697349075        1.9872101588
 H         -1.8045170625        4.4154025733        1.1498972995
 H         -4.5852765445        4.1321743848       -1.3361803081
 H         -3.0196583706        4.6359373624       -0.7064810843
 H         -3.1358242168        3.2146560012       -1.7460998568
 H         -4.6865530598        3.0120046560        2.2645630116
 H         -5.5141083564        4.0140628043        1.0722868523
 H         -3.9495503619        4.5132986596        1.7051186134
 H         -6.3672831899        2.9389666892       -0.6634659200
 H         -7.8234162514        1.1035038133       -1.3391614669
 H         -7.0071563135       -1.2341504234       -1.2039567406
 H         -4.7420965357       -1.6852992656       -0.3844268516
 H         -3.2508804434       -1.7889403181        2.3080625017
 H         -2.2579037241       -4.0595717552        2.2415645195
 H          0.7604367784       -3.2820552801        1.6825548747
 H          1.7782940396       -1.0379498187        1.6229211589
 H          0.5951794369       -0.3239885817       -1.3960668249
 H         -0.9872327230        1.3913746897       -2.1490018993
 H         -0.3631511606        3.7840126459       -2.0114847835
 H          1.8313541177        4.4179645440       -1.1614833776
