  84
  -125.997666318100       0.440224567588528      !
 C          4.9498730581        3.5541171482        1.1260082677
 C          4.8266144183        2.7186760452       -0.1626024504
 C          5.4840427265        3.4584965546       -1.3427765407
 C          5.5445225071        1.4021421936        0.0548574641
 C          6.9087685740        1.3988447163        0.3120195399
 C          7.6062287502        0.2299863862        0.5548640791
 C          6.9266895197       -0.9771635823        0.5678503235
 C          5.5724108969       -1.0040967416        0.3194424022
 C          4.8684719893        0.1741466891        0.0386153904
 N          3.5150749098        0.1143573032       -0.2337724460
 C          2.8507920944       -1.1406137003       -0.2087033984
 C          3.0555218784       -2.0716932502       -1.2238900871
 C          2.3743816517       -3.2690142613       -1.2070611955
 C          1.4521051257       -3.5484095731       -0.1921907527
 C          0.7160705535       -4.8205525914       -0.2296702307
 O          1.1978398205       -5.8528492827       -0.7135484808
 C         -0.6423391370       -4.8117392670        0.3861282766
 O         -1.1204066859       -5.8308282946        0.9025613430
 C         -1.3861810333       -3.5471602670        0.3067627894
 C         -1.2121177054       -2.6419757148       -0.7474597729
 C         -1.9171248678       -1.4594782381       -0.7719835985
 C         -2.8232444193       -1.1629163413        0.2430145010
 N         -3.5135131272        0.0801768683        0.2267287839
 C         -2.8442062827        1.2106090789        0.6484889025
 C         -1.5419578146        1.0938553407        1.1524779868
 C         -0.8437157818        2.2057664832        1.5677058797
 C         -1.4302573196        3.4580074944        1.4878044267
 C         -2.7226549291        3.5740728110        1.0096475171
 C         -3.4553397171        2.4711428641        0.5933369392
 C         -4.8801648804        2.6527981963        0.1104851146
 C         -4.8739920480        3.5762600695       -1.1225255911
 C         -5.7041839954        3.2866545835        1.2471621918
 C         -5.5191589402        1.3354655601       -0.2803381784
 C         -6.8325458866        1.3136038998       -0.7292182065
 C         -7.4542991509        0.1415379295       -1.1189144560
 C         -6.7493967590       -1.0505382063       -1.0767155964
 C         -5.4443878334       -1.0593731334       -0.6372106261
 C         -4.8180575277        0.1230161734       -0.2224569079
 C         -3.0480874822       -2.0829710934        1.2634326923
 C         -2.3452302700       -3.2673458683        1.2880076633
 C          1.2943934232       -2.6303317254        0.8530721934
 C          1.9834763881       -1.4384952669        0.8400739678
 C          2.7755518406        1.2439865957       -0.5253473221
 C          1.4303747567        1.1139128786       -0.8965227746
 C          0.6634818019        2.2233389434       -1.1739487226
 C          1.2206449622        3.4879890880       -1.0814271738
 C          2.5549595484        3.6183882212       -0.7438426494
 C          3.3583639975        2.5179557545       -0.4778850748
 H          4.5028210103        3.0171608803        1.9608911778
 H          5.9926783343        3.7467225944        1.3625938414
 H          4.4413264810        4.5083855909        1.0192937300
 H          6.5351899975        3.6479511640       -1.1463250530
 H          4.9977373297        4.4126323615       -1.5235630064
 H          5.4063214305        2.8569701411       -2.2464264226
 H          7.4483235268        2.3334077004        0.3284613237
 H          8.6676692073        0.2629254236        0.7445574431
 H          7.4495007617       -1.8980659535        0.7754574978
 H          5.0450579043       -1.9440249068        0.3453917844
 H          3.7450551458       -1.8439453435       -2.0234687825
 H          2.5205660893       -3.9986961756       -1.9883486065
 H         -0.5322228375       -2.8766549525       -1.5495271294
 H         -1.7782897269       -0.7547305865       -1.5789311985
 H         -1.0834664784        0.1204855854        1.2130650143
 H          0.1594740003        2.0963961750        1.9507735424
 H         -0.8886539816        4.3362948759        1.8023153610
 H         -3.1696565687        4.5555290416        0.9646724600
 H         -5.8847911453        3.7494697697       -1.4808817550
 H         -4.4274307269        4.5377427425       -0.8847993400
 H         -4.2993334010        3.1191238205       -1.9261869356
 H         -5.6971214408        2.6339968115        2.1181577377
 H         -6.7352393193        3.4385197390        0.9411518062
 H         -5.2912739416        4.2488688498        1.5363648944
 H         -7.3918323644        2.2353058432       -0.7810068017
 H         -8.4777552489        0.1602053955       -1.4594059216
 H         -7.2143576521       -1.9731657642       -1.3882200773
 H         -4.8939683127       -1.9863554497       -0.6130598396
 H         -3.7707746912       -1.8567341634        2.0335891128
 H         -2.5035701403       -3.9884899537        2.0748088308
 H          0.6388107298       -2.8631355713        1.6760015478
 H          1.8585089296       -0.7240558264        1.6405624871
 H          0.9924047882        0.1319985388       -0.9680566899
 H         -0.3703441300        2.1026976317       -1.4594083926
 H          0.6236587910        4.3639175136       -1.2812761066
 H          2.9790426222        4.6095638768       -0.6913092480
  84
  -125.997526110100       0.379523908653390      !
 C          4.3062479524        3.7530049101        1.0184838563
 C          4.3081696700        2.8295306040       -0.2139566997
 C          4.9796938318        3.5347353323       -1.4078617678
 C          5.1003361848        1.5809809556        0.1180767523
 C          6.4336583736        1.6893354395        0.4892581944
 C          7.1946708628        0.5829410370        0.8192500849
 C          6.6158698975       -0.6755947632        0.7907077991
 C          5.2955469287       -0.8139025597        0.4248445621
 C          4.5263932388        0.3030780761        0.0740103992
 N          3.2088728124        0.1308669485       -0.3005208481
 C          2.6405344615       -1.1722713507       -0.2600187314
 C          2.8664040631       -2.0810704404       -1.2899437624
 C          2.2682758030       -3.3226765771       -1.2546019141
 C          1.4095415720       -3.6667912280       -0.2055015990
 C          0.7203161338       -4.9673162163       -0.2285069177
 O          1.2310654068       -5.9895345290       -0.7036608979
 C         -0.6368862998       -4.9832824451        0.3929815369
 O         -1.1036948456       -6.0058195144        0.9112478005
 C         -1.3758172346       -3.7136163932        0.3185279704
 C         -1.2341180225       -2.8512711458       -0.7756870795
 C         -1.8676662984       -1.6293309417       -0.7828783330
 C         -2.6659952173       -1.2509328703        0.2924257846
 N         -3.2414468043        0.0506529405        0.3012864282
 C         -2.4782876648        1.0998824885        0.7687622676
 C         -1.2242609001        0.8404653322        1.3372783902
 C         -0.4345370802        1.8691938957        1.7992555833
 C         -0.8773963550        3.1774313085        1.7008373473
 C         -2.1204680036        3.4347477560        1.1518662678
 C         -2.9432549479        2.4195385463        0.6855214348
 C         -4.2999629567        2.7572746977        0.1004337289
 C         -4.0937458445        3.6638371480       -1.1278268786
 C         -5.1308838348        3.4896528016        1.1705830827
 C         -5.0553075031        1.5180330681       -0.3365600945
 C         -6.3293487507        1.6385269554       -0.8741121906
 C         -7.0526137860        0.5382482263       -1.2972971216
 C         -6.4963708405       -0.7264437382       -1.1918182754
 C         -5.2328992006       -0.8765729317       -0.6652149106
 C         -4.5014573948        0.2351525239       -0.2284090642
 C         -2.8834332806       -2.1367930191        1.3436638483
 C         -2.2545767991       -3.3636631493        1.3491680359
 C          1.2469276623       -2.7729173851        0.8598971702
 C          1.8527428210       -1.5373623208        0.8280443138
 C          2.3964941368        1.1931922414       -0.6399015845
 C          1.0803592998        0.9505059932       -1.0547589797
 C          0.2416963483        1.9917274577       -1.3831911982
 C          0.6964263610        3.2969209548       -1.3018668453
 C          2.0026500897        3.5379861462       -0.9166969603
 C          2.8755343969        2.5097416383       -0.5907584260
 H          3.8271643730        3.2513432944        1.8573580941
 H          5.3198493597        4.0135945487        1.3093517182
 H          3.7654079377        4.6725302215        0.8136599451
 H          6.0065260090        3.8005637177       -1.1731395790
 H          4.4446345572        4.4422753903       -1.6731457866
 H          4.9852065951        2.8741135146       -2.2729425588
 H          6.8977173139        2.6631601081        0.5256348726
 H          8.2288328570        0.7028946778        1.1019264606
 H          7.1912424672       -1.5494476507        1.0547931835
 H          4.8442393364       -1.7930823437        0.4096501728
 H          3.5036651287       -1.8021950803       -2.1162125085
 H          2.4272486680       -4.0345333878       -2.0498108958
 H         -0.6278898111       -3.1469324562       -1.6156348115
 H         -1.7497650543       -0.9533600895       -1.6170547582
 H         -0.8771155261       -0.1772308024        1.4067630765
 H          0.5303378429        1.6529391354        2.2327296868
 H         -0.2626109652        3.9910900447        2.0524781429
 H         -2.4532315615        4.4594804512        1.0882276397
 H         -5.0468095119        3.9349349030       -1.5732262882
 H         -3.5738835541        4.5769960694       -0.8518287417
 H         -3.5008121736        3.1439482074       -1.8784054905
 H         -5.2877481912        2.8372557633        2.0275197152
 H         -6.1013277601        3.7789425619        0.7776948659
 H         -4.6219859829        4.3867096246        1.5114164307
 H         -6.7755726755        2.6165913039       -0.9704621272
 H         -8.0413638723        0.6676159496       -1.7088299563
 H         -7.0453185286       -1.5954380382       -1.5203501268
 H         -4.7967152808       -1.8597898397       -0.5856743858
 H         -3.5339389742       -1.8492294130        2.1564317328
 H         -2.4022799185       -4.0564615357        2.1631419845
 H          0.6497784293       -3.0569604710        1.7105143911
 H          1.7214462755       -0.8388977241        1.6410872614
 H          0.7240413777       -0.0646423974       -1.1141802087
 H         -0.7704293774        1.7868254702       -1.6973422024
 H          0.0435705954        4.1200256105       -1.5467955020
 H          2.3473560392        4.5599282548       -0.8754238503
  84
  -125.996039623400       7.872218723676482E-002 !
 C          3.8488262022        3.8591008232        0.8964905184
 C          3.9985849414        2.8716583347       -0.2755383020
 C          4.7080946714        3.5531042319       -1.4611802994
 C          4.8411713555        1.6988031623        0.1839611426
 C          6.1343608865        1.9145983153        0.6395222547
 C          6.9364296542        0.8793897357        1.0841959935
 C          6.4418432185       -0.4149641473        1.0861221471
 C          5.1633561018       -0.6599240189        0.6367328401
 C          4.3535529553        0.3846407395        0.1732944158
 N          3.0828562612        0.1045160180       -0.2836395791
 C          2.5928607669       -1.2305199309       -0.2212510572
 C          2.8589313552       -2.1369844209       -1.2435673169
 C          2.2918913073       -3.3937004904       -1.2130646648
 C          1.4211644384       -3.7523231080       -0.1792616017
 C          0.7268725819       -5.0501695405       -0.2248340932
 O          1.2475797909       -6.0776770702       -0.6778062433
 C         -0.6534277168       -5.0515165037        0.3426433935
 O         -1.1594548965       -6.0720716664        0.8267734638
 C         -1.3663267852       -3.7657175704        0.2579116253
 C         -1.1977512894       -2.9126139707       -0.8391979485
 C         -1.7935183387       -1.6713398870       -0.8517689011
 C         -2.5699596263       -1.2589920360        0.2268864769
 N         -3.0771305421        0.0709749292        0.2574633029
 C         -2.2634515612        1.0689848184        0.7531395361
 C         -1.0005459364        0.7408466137        1.2625815455
 C         -0.1562286485        1.7192997221        1.7374461574
 C         -0.5541572079        3.0448842577        1.7164611119
 C         -1.8103855149        3.3686331639        1.2371950367
 C         -2.6847694171        2.4056948898        0.7546198405
 C         -4.0606203565        2.8142809171        0.2687328114
 C         -3.9054114063        3.8586146081       -0.8518838061
 C         -4.8348023423        3.4165513168        1.4570200293
 C         -4.8464165178        1.6348410223       -0.2680488380
 C         -6.1204614008        1.8300010276       -0.7829001036
 C         -6.8733382956        0.7863919655       -1.2897107114
 C         -6.3492201452       -0.4962890397       -1.2903854845
 C         -5.0904613412       -0.7214861451       -0.7793044607
 C         -4.3289517552        0.3321707883       -0.2581063565
 C         -2.8235715302       -2.1384000393        1.2755630132
 C         -2.2407757302       -3.3881805598        1.2817242426
 C          1.2393871920       -2.8691518201        0.8916492292
 C          1.8191210353       -1.6206351780        0.8676225669
 C          2.2323101761        1.0902759974       -0.7407863992
 C          0.9673668879        0.7388314130       -1.2291097533
 C          0.0872755835        1.7036216109       -1.6656711736
 C          0.4494099604        3.0388991067       -1.6236335898
 C          1.7082325100        3.3861769530       -1.1684518403
 C          2.6202200983        2.4369645933       -0.7303497106
 H          3.3488392328        3.3706546189        1.7308703480
 H          4.8196388109        4.2086901949        1.2357662340
 H          3.2608114246        4.7236852158        0.6023204286
 H          5.6990656499        3.8948332699       -1.1761828451
 H          4.1394446526        4.4095811450       -1.8123930852
 H          4.8115033665        2.8489174622       -2.2847339581
 H          6.5334689698        2.9173787998        0.6507850004
 H          7.9378144605        1.0824132912        1.4302182585
 H          7.0510430383       -1.2332325843        1.4377921911
 H          4.7757489022       -1.6664952019        0.6399175569
 H          3.4957585025       -1.8419082655       -2.0644644517
 H          2.4772772892       -4.1019740977       -2.0057182504
 H         -0.5976489181       -3.2295829531       -1.6761030466
 H         -1.6578260056       -1.0052832171       -1.6904196497
 H         -0.6895842181       -0.2903396304        1.2756255521
 H          0.8161165990        1.4503535164        2.1225619259
 H          0.1025415683        3.8201267097        2.0792911225
 H         -2.1128850564        4.4044648912        1.2460818126
 H         -4.8749932324        4.1778705133       -1.2228106890
 H         -3.3757317985        4.7365476766       -0.4936504344
 H         -3.3440259090        3.4316698161       -1.6809615417
 H         -4.9515634195        2.6692588294        2.2398580468
 H         -5.8227836218        3.7465228335        1.1483029338
 H         -4.3031422483        4.2679031901        1.8730622132
 H         -6.5448902378        2.8223634526       -0.7894938830
 H         -7.8606310362        0.9737004414       -1.6819814611
 H         -6.9204808774       -1.3209319783       -1.6878264860
 H         -4.6806875347       -1.7193111453       -0.7772146500
 H         -3.4625075071       -1.8268764198        2.0886746723
 H         -2.4152970838       -4.0743762382        2.0959669798
 H          0.6422896027       -3.1688250697        1.7369886370
 H          1.6719825099       -0.9304124892        1.6844358348
 H          0.6839023368       -0.2999609063       -1.2584016504
 H         -0.8849148352        1.4161579311       -2.0374765547
 H         -0.2365174252        3.8034524676       -1.9535314116
 H          1.9829403202        4.4297408335       -1.1612526627
  84
  -125.995533605600       4.608371398290043E-002 !
 C          3.7694271493        3.7509290306        1.0162437871
 C          3.8882216358        2.8762314723       -0.2459402130
 C          4.5138916471        3.6834519834       -1.3988070147
 C          4.7867135821        1.6971671719        0.0689185130
 C          6.1080151171        1.9151265406        0.4337443396
 C          6.9608798896        0.8744299805        0.7532921691
 C          6.4891322554       -0.4280544407        0.7234817954
 C          5.1820320524       -0.6747239025        0.3672290447
 C          4.3206354573        0.3757897601        0.0263166755
 N          3.0213095733        0.0950302586       -0.3421278678
 C          2.5405270092       -1.2416645758       -0.2579120266
 C          2.7657655642       -2.1551385831       -1.2838479586
 C          2.2128648858       -3.4170963264       -1.2149693599
 C          1.3965126496       -3.7738420023       -0.1377206142
 C          0.7104373270       -5.0775401949       -0.1300059075
 O          1.2206147167       -6.1143810427       -0.5733845775
 C         -0.6492926374       -5.0657898353        0.4853021100
 O         -1.1398131288       -6.0718033446        1.0131578137
 C         -1.3591461775       -3.7783732354        0.3862824589
 C         -1.2389633561       -2.9779944341       -0.7556551533
 C         -1.8207161195       -1.7307601517       -0.7948765818
 C         -2.5323294066       -1.2590834496        0.3038914879
 N         -3.0258142366        0.0759466205        0.2966945877
 C         -2.2457034139        1.0659154505        0.8585004612
 C         -1.0250965827        0.7266759587        1.4560568286
 C         -0.2165566398        1.6953876614        2.0066628570
 C         -0.6107855706        3.0222124090        1.9781067557
 C         -1.8192336373        3.3585509854        1.3963734027
 C         -2.6520320889        2.4067165502        0.8259217588
 C         -3.9638343738        2.8334217891        0.1988647361
 C         -3.6800809000        3.8893111750       -0.8852792769
 C         -4.8600471258        3.4294554067        1.3012518497
 C         -4.6952022166        1.6672256984       -0.4347185673
 C         -5.8931803927        1.8829823784       -1.1016882903
 C         -6.6006484611        0.8501878707       -1.6895473461
 C         -6.1134134720       -0.4442853951       -1.6073997179
 C         -4.9313552526       -0.6897931911       -0.9449049259
 C         -4.2070624106        0.3555778891       -0.3578876860
 C         -2.7369504457       -2.0855360494        1.4051073166
 C         -2.1702473415       -3.3425116883        1.4380637738
 C          1.2528282414       -2.8801615779        0.9303233377
 C          1.8180722290       -1.6267393145        0.8672652152
 C          2.1319880266        1.0848861811       -0.7083643003
 C          0.8500364881        0.7315302160       -1.1479736896
 C         -0.0631933170        1.6974339780       -1.5069712469
 C          0.2801272805        3.0359898095       -1.4261768885
 C          1.5516948802        3.3867110122       -1.0118592156
 C          2.4996204917        2.4362065305       -0.6617737833
 H          3.3164929580        3.1772409634        1.8228531209
 H          4.7473606981        4.0915950963        1.3446673551
 H          3.1495260682        4.6223785194        0.8250251099
 H          5.5005557307        4.0477986693       -1.1280586418
 H          3.8956033225        4.5391198150       -1.6543566878
 H          4.6101508837        3.0539614272       -2.2814803475
 H          6.4882127304        2.9244129117        0.4749841732
 H          7.9833351342        1.0794135016        1.0294857709
 H          7.1380837946       -1.2515363192        0.9786186591
 H          4.8122141506       -1.6876639019        0.3495875891
 H          3.3600237206       -1.8628216421       -2.1370830620
 H          2.3680545824       -4.1303622856       -2.0097230847
 H         -0.6862925494       -3.3405412502       -1.6065837886
 H         -1.7249635983       -1.1068153290       -1.6708177651
 H         -0.7158789216       -0.3049607858        1.4738398114
 H          0.7232058345        1.4172093318        2.4603618634
 H          0.0145492420        3.7890058792        2.4081708591
 H         -2.1159686880        4.3960755234        1.3914352175
 H         -4.6032696713        4.2435281507       -1.3344049489
 H         -3.1595568933        4.7459832917       -0.4673677337
 H         -3.0609946193        3.4571873816       -1.6691618368
 H         -5.0602084449        2.6781056593        2.0630239334
 H         -5.8093411185        3.7613687699        0.8898074489
 H         -4.3752121716        4.2782972449        1.7757913127
 H         -6.2927604131        2.8834460711       -1.1668613358
 H         -7.5267885779        1.0541259844       -2.2037000720
 H         -6.6552353538       -1.2629064109       -2.0553685953
 H         -4.5555186926       -1.6981034018       -0.8716965137
 H         -3.3247261523       -1.7270236351        2.2371881930
 H         -2.3088552115       -3.9880603404        2.2915824687
 H          0.6988216335       -3.1773321198        1.8052456015
 H          1.7009305056       -0.9279020056        1.6816083445
 H          0.5808427765       -0.3100799578       -1.2040829661
 H         -1.0454370251        1.4075864826       -1.8489887649
 H         -0.4308107803        3.8022772196       -1.6926247078
 H          1.8069626041        4.4341011749       -0.9653088601
  84
  -125.995219035800       3.303552415734840E-002 !
 C          3.6559374404        3.7675497240        1.0999165432
 C          3.8905966999        2.8881680512       -0.1426520415
 C          4.6233531065        3.6913073160       -1.2334371128
 C          4.7546061228        1.7091992293        0.2577738766
 C          6.0326785722        1.9260338022        0.7537392939
 C          6.8533948965        0.8835200484        1.1441988695
 C          6.3944784898       -0.4202939985        1.0467632590
 C          5.1296410829       -0.6659114944        0.5606758327
 C          4.2989227505        0.3874761413        0.1581971501
 N          3.0408342451        0.1067905357       -0.3318456113
 C          2.5585811157       -1.2322631506       -0.2922874427
 C          2.7763912786       -2.1075816441       -1.3523688054
 C          2.2200169998       -3.3695173832       -1.3276571282
 C          1.4078558169       -3.7632882502       -0.2598614355
 C          0.7160619316       -5.0631144039       -0.2982101211
 O          1.2153493951       -6.0827130855       -0.7906783312
 C         -0.6370708420       -5.0704432118        0.3331924561
 O         -1.1216039565       -6.0935332726        0.8330414781
 C         -1.3481958657       -3.7814617736        0.2847523391
 C         -1.2278733112       -2.9349891415       -0.8237511980
 C         -1.8160661453       -1.6904315862       -0.8140035699
 C         -2.5374552881       -1.2679894958        0.2980924550
 N         -3.0405740753        0.0636379792        0.3278759352
 C         -2.1999813051        1.0699887067        0.7564882461
 C         -0.9469480472        0.7408447358        1.2888639720
 C         -0.0818167343        1.7240116983        1.7136924629
 C         -0.4458580989        3.0555663093        1.6111942380
 C         -1.6876201100        3.3823018492        1.0975376675
 C         -2.5853376790        2.4145939975        0.6711221458
 C         -3.9357601040        2.8295472009        0.1233150497
 C         -3.7114528553        3.6995368371       -1.1279472820
 C         -4.6816032701        3.6333762391        1.2047313058
 C         -4.7814974400        1.6342586841       -0.2676881690
 C         -6.0638070408        1.8271993399       -0.7626042534
 C         -6.8677628337        0.7691428064       -1.1459626148
 C         -6.3868629872       -0.5262919626       -1.0429508677
 C         -5.1172124007       -0.7482798745       -0.5581746775
 C         -4.3036237670        0.3208377710       -0.1622572243
 C         -2.7411305804       -2.1382096681        1.3652079906
 C         -2.1658075823       -3.3917692715        1.3498848344
 C          1.2741570537       -2.9102627939        0.8420362330
 C          1.8430663531       -1.6569526569        0.8227306957
 C          2.1833353791        1.0969966301       -0.7646300872
 C          0.9358681761        0.7444809425       -1.2951224983
 C          0.0540101697        1.7111254712       -1.7234273108
 C          0.3952838771        3.0490768625       -1.6261103870
 C          1.6317656057        3.3988845006       -1.1149654708
 C          2.5460481195        2.4482408718       -0.6853716378
 H          3.1329494625        3.1962937108        1.8646801985
 H          4.5991923875        4.1116822375        1.5147452273
 H          3.0553080345        4.6374932701        0.8495230134
 H          5.5856353573        4.0452274158       -0.8749864020
 H          4.0377906164        4.5533145827       -1.5400183721
 H          4.7916773198        3.0626141825       -2.1057740791
 H          6.4040231480        2.9355278086        0.8431132036
 H          7.8420797401        1.0879098726        1.5241756172
 H          7.0210974986       -1.2453991552        1.3483188645
 H          4.7691417921       -1.6797450913        0.4858969669
 H          3.3670401027       -1.7848922601       -2.1970496245
 H          2.3687774615       -4.0537712637       -2.1486877745
 H         -0.6725446321       -3.2609207459       -1.6875773157
 H         -1.7173061814       -1.0284969275       -1.6610795712
 H         -0.6609964688       -0.2954004366        1.3602237785
 H          0.8804021667        1.4531164520        2.1221510545
 H          0.2280717647        3.8341422549        1.9327673121
 H         -1.9578966455        4.4248293262        1.0295603792
 H         -4.6589978366        4.0260615995       -1.5472708571
 H         -3.1232439801        4.5802189554       -0.8855589791
 H         -3.1795225443        3.1279831332       -1.8863789855
 H         -5.6479291763        3.9705007332        0.8411871550
 H         -4.1091500325        4.5066898023        1.5038995348
 H         -4.8430857595        3.0114355479        2.0831328029
 H         -6.4517090093        2.8299593198       -0.8575461842
 H         -7.8603363179        0.9550686481       -1.5253099432
 H         -6.9994140329       -1.3631069682       -1.3409665081
 H         -4.7397269506       -1.7555666020       -0.4788267797
 H         -3.3358229772       -1.8178448218        2.2079350605
 H         -2.3039262484       -4.0719355691        2.1761566314
 H          0.7235380304       -3.2379278286        1.7081838763
 H          1.7345067238       -0.9903653390        1.6649135982
 H          0.6678731540       -0.2967993843       -1.3630666128
 H         -0.9035202505        1.4222866952       -2.1305487214
 H         -0.2918836748        3.8147853336       -1.9505314531
 H          1.8846130539        4.4460828067       -1.0517863431
  84
  -125.994852305800       2.241009838106784E-002 !
 C          3.5719811495        3.8008242120        1.0541834530
 C          3.8280414251        2.8992407044       -0.1679849821
 C          4.5721031806        3.6853279976       -1.2636141687
 C          4.6919677494        1.7325085154        0.2665034608
 C          5.9586835422        1.9657114222        0.7835818955
 C          6.7795186335        0.9347823555        1.2033011854
 C          6.3331790195       -0.3738634314        1.1122760037
 C          5.0800554407       -0.6356580493        0.6049638945
 C          4.2480278442        0.4061208117        0.1758333739
 N          3.0015254190        0.1089539509       -0.3333521216
 C          2.5331649092       -1.2352281240       -0.2934391238
 C          2.7423410706       -2.1016455227       -1.3626144441
 C          2.1966613684       -3.3683843056       -1.3388021661
 C          1.4018649924       -3.7751289633       -0.2630377668
 C          0.7152526380       -5.0782273793       -0.2995995894
 O          1.2162034788       -6.0964105112       -0.7929907960
 C         -0.6355602553       -5.0881417044        0.3373400051
 O         -1.1162939222       -6.1110159894        0.8411099199
 C         -1.3464781981       -3.7989429135        0.2880763696
 C         -1.2339039944       -2.9612438436       -0.8278843438
 C         -1.8139870589       -1.7128581389       -0.8204338619
 C         -2.5179761547       -1.2773495509        0.2976583998
 N         -3.0041365127        0.0606674843        0.3286770981
 C         -2.1540245134        1.0537041169        0.7697856571
 C         -0.9061236608        0.7062223555        1.3022276931
 C         -0.0315637714        1.6759696982        1.7383838105
 C         -0.3813688896        3.0122519822        1.6487238829
 C         -1.6176365732        3.3570890624        1.1342153322
 C         -2.5238801747        2.4031676368        0.6948983597
 C         -3.8693907428        2.8382830781        0.1512480615
 C         -3.6371624960        3.7371042529       -1.0775789189
 C         -4.6145110387        3.6191432268        1.2500373604
 C         -4.7205167944        1.6571713711       -0.2695386240
 C         -5.9945663958        1.8697929080       -0.7773406912
 C         -6.8047127821        0.8251096378       -1.1834460252
 C         -6.3393408999       -0.4766593227       -1.0890170736
 C         -5.0785564124       -0.7181490490       -0.5906733898
 C         -4.2579547299        0.3374968167       -0.1737286333
 C         -2.7175456703       -2.1400247590        1.3717626225
 C         -2.1514832998       -3.3979252100        1.3584545209
 C          1.2776841359       -2.9310072418        0.8466751391
 C          1.8385662724       -1.6739335080        0.8292538877
 C          2.1413383720        1.0875160289       -0.7869666037
 C          0.9004942331        0.7198918220       -1.3223819688
 C          0.0161139536        1.6747649529       -1.7713454091
 C          0.3492943959        3.0160205724       -1.6925980658
 C          1.5782604749        3.3807684571       -1.1742924143
 C          2.4935067551        2.4421922404       -0.7207776027
 H          3.0473962824        3.2390619310        1.8248128582
 H          4.5074648083        4.1631300194        1.4710898310
 H          2.9651444509        4.6593658764        0.7805007227
 H          5.5289863612        4.0481369501       -0.8996215638
 H          3.9877600762        4.5400466946       -1.5921749879
 H          4.7528265613        3.0422128868       -2.1228677671
 H          6.3211731684        2.9791005057        0.8652162310
 H          7.7597128862        1.1517195452        1.5982005878
 H          6.9608508550       -1.1901758886        1.4348865416
 H          4.7297909474       -1.6533406476        0.5332975059
 H          3.3185222587       -1.7686362568       -2.2132944794
 H          2.3407366829       -4.0462178828       -2.1660438440
 H         -0.6900427551       -3.2967206859       -1.6953378346
 H         -1.7219413259       -1.0582286647       -1.6738498506
 H         -0.6311621424       -0.3335346436        1.3641256161
 H          0.9264645732        1.3908569610        2.1473803724
 H          0.2982919061        3.7806670619        1.9825803820
 H         -1.8777258848        4.4028955133        1.0784164839
 H         -4.5813513881        4.0846498444       -1.4872320125
 H         -3.0396126993        4.6052005119       -0.8137876313
 H         -3.1121607320        3.1789889872       -1.8506096379
 H         -4.7784518242        2.9772132536        2.1134797538
 H         -5.5796139449        3.9670860808        0.8933232951
 H         -4.0389859977        4.4831119190        1.5698859736
 H         -6.3714655240        2.8776171828       -0.8624116612
 H         -7.7902936964        1.0262681140       -1.5732176660
 H         -6.9571248624       -1.3032344607       -1.4045897236
 H         -4.7131764405       -1.7303829608       -0.5169524371
 H         -3.3010399487       -1.8100945025        2.2186430041
 H         -2.2859067946       -4.0717110267        2.1905850816
 H          0.7403880143       -3.2685222143        1.7174777975
 H          1.7390898482       -1.0153706223        1.6787291636
 H          0.6389704444       -0.3237632047       -1.3766277279
 H         -0.9361248163        1.3740815764       -2.1827348189
 H         -0.3381711474        3.7728735876       -2.0366066560
 H          1.8244809871        4.4302367603       -1.1249816125
