  68
       -103.02198647
 C         -7.3363992828        1.2008476551        0.1728570644
 C         -6.4179881554       -0.0228694274       -0.0040200854
 C         -7.2629006493       -1.2976886473       -0.1875536344
 C         -5.5705529924       -0.1790189568        1.2408307326
 C         -6.1831790641       -0.3648780642        2.4719660827
 C         -5.4536395756       -0.5104121404        3.6378294427
 C         -4.0689633218       -0.4683368872        3.5864510851
 C         -3.4332096944       -0.2869454684        2.3793675330
 C         -4.1687374338       -0.1442419156        1.1942305549
 N         -3.5012156701        0.0322684662        0.0024487549
 C         -2.0760525765        0.0311274334        0.0021496300
 C         -1.3716166732        1.2348833594        0.0919502527
 C         -0.0007764596        1.2320244329        0.0915573316
 C          0.7184528670        0.0202926109        0.0023920145
 C          2.1353616993        0.0113277866        0.0025817152
 N          2.8265935858        1.1755997288        0.0799049067
 C          4.1328617644        1.1384346328        0.0720720227
 C          4.8796610353        2.3871316435        0.1485877556
 C          4.2096088808        3.6075286874        0.2493894929
 C          4.9237710059        4.7857493564        0.3214239187
 C          6.3108459955        4.7646916876        0.2934371198
 C          6.9822501409        3.5556246042        0.1927959128
 C          6.2749366325        2.3725250301        0.1209615381
 N          4.8311486315       -0.0125386846       -0.0036324543
 C          4.1129275440       -1.1515522991       -0.0734658777
 C          4.8350909725       -2.4144124520       -0.1499528046
 C          4.1401272265       -3.6234090327       -0.2115603965
 C          4.8300567361       -4.8159107444       -0.2832744176
 C          6.2175314595       -4.8206478993       -0.2948355639
 C          6.9135954756       -3.6230804815       -0.2333585488
 C          6.2304943220       -2.4257689917       -0.1609980830
 N          2.8064011581       -1.1642905900       -0.0751578215
 C         -0.0104252773       -1.1857223883       -0.0875987250
 C         -1.3807975759       -1.1780369609       -0.0881149135
 C         -4.1697507065        0.1932157704       -1.1908938979
 C         -3.4350538706        0.3701708881       -2.3719618577
 C         -4.0720631260        0.5378281405       -3.5803241556
 C         -5.4571475202        0.5296492570       -3.6374587136
 C         -6.1856640165        0.3492118702       -2.4758528140
 C         -5.5717176568        0.1790308551       -1.2430892957
 H         -7.9645269380        1.0893129727        1.0517606530
 H         -6.7352251459        2.1001822015        0.2912346040
 H         -7.9803106053        1.3290094423       -0.6921953738
 H         -7.8988304422       -1.4674364950        0.6766136877
 H         -6.6100385953       -2.1599276597       -0.3091394579
 H         -7.8950734903       -1.2188418180       -1.0672565166
 H         -7.2601987639       -0.3989475653        2.5300302991
 H         -5.9620949670       -0.6541650851        4.5786225104
 H         -3.4857046741       -0.5770462686        4.4879679125
 H         -2.3564428143       -0.2518879741        2.3367576892
 H         -1.9238979923        2.1613023680        0.1615634174
 H          0.5561258095        2.1530503422        0.1606682196
 H          3.1307482244        3.6080365692        0.2701099144
 H          4.4014595061        5.7283144091        0.4002648016
 H          6.8667772637        5.6890804526        0.3503468270
 H          8.0623990861        3.5396843812        0.1710631113
 H          6.7821503060        1.4235337833        0.0427181063
 H          3.0613736016       -3.6039528893       -0.2014872061
 H          4.2885877241       -5.7495965308       -0.3306826125
 H          6.7541054271       -5.7564623747       -0.3511436586
 H          7.9939583468       -3.6270544849       -0.2421403168
 H          6.7572939147       -1.4854530532       -0.1126129398
 H          0.5394453522       -2.1108734885       -0.1568658967
 H         -1.9405467605       -2.0999198396       -0.1561365367
 H         -2.3578671099        0.3725413281       -2.3249560257
 H         -3.4894179264        0.6736125852       -4.4785719374
 H         -5.9666246657        0.6602836325       -4.5796183512
 H         -7.2629895029        0.3409616493       -2.5387663510
