68
 energy: -103.070331487728 gnorm: 0.000074484165 xtb: 6.7.1 (edcfbbe)
C           -7.30301328548857        1.15203723219150       -0.52759106622245
C           -6.42050962729612       -0.00147236573539       -0.00934796628314
C           -7.30433450414462       -1.15511331588090        0.50636823759171
C           -5.57590746034266        0.50798925468476        1.13771456508009
C           -6.19046144481810        1.01614570691602        2.27433219091031
C           -5.46223583893790        1.47578356040422        3.35657949977514
C           -4.07565473504988        1.42258622079391        3.32241206911717
C           -3.43735007298101        0.92652403452039        2.20920700438234
C           -4.17124012464767        0.47521402891436        1.10050035466383
N           -3.50185325654214       -0.00161314375560       -0.00502254129886
C           -2.07755752012110       -0.00174259714962       -0.00291605761951
C           -1.37502997188162        1.17250320060292       -0.29292642429955
C           -0.00428875142178        1.17387576427958       -0.29057957390251
C            0.72254093429073       -0.00210663212973        0.00093679243729
C            2.14159016617180       -0.00230461747692        0.00276877253936
N            2.81587973085023        1.14663515183809       -0.25904961250200
C            4.12465087680121        1.11479963637362       -0.24124449828029
C            4.85931017037253        2.34843538069132       -0.50204713220926
C            4.17889085585730        3.52739386712600       -0.81361736881411
C            4.87904948326884        4.69181960793026       -1.05562847740018
C            6.26530553780519        4.69982383974614       -0.98961022443287
C            6.94863332952773        3.53318184337836       -0.68050489210373
C            6.25381891991804        2.36475937475625       -0.43798022947487
N            4.83966788040274       -0.00274986629493        0.00565232040682
C            4.12371543709453       -1.12004668066217        0.25123308528139
C            4.85739642881754       -2.35386224143460        0.51378499802864
C            4.17594585592617       -3.53247026081391        0.82444620899515
C            4.87520896684131       -4.69708632763996        1.06813125523356
C            6.26157550618447       -4.70565390788851        1.00464129176792
C            6.94592849231858       -3.53936223608485        0.69647710677288
C            6.25201834836632       -2.37073983597914        0.45234595350563
N            2.81492977518173       -1.15135440720974        0.26623770291688
C           -0.00538825086510       -1.17788380453446        0.29054066508432
C           -1.37612758071588       -1.17615864325303        0.28908176989668
C           -4.16801382152232       -0.47835828632517       -1.11253263959823
C           -3.43087653410117       -0.92984650532611       -2.21900818042383
C           -4.06592122987112       -1.42585822266041       -3.33409895381746
C           -5.45240286737897       -1.47877032641345       -3.37244308792552
C           -6.18380060340983       -1.01896062357472       -2.29240968867987
C           -5.57256979910848       -0.51090548045327       -1.15395528202360
H           -7.94012353321502        1.53448781339621        0.26396088790080
H           -6.67675547889270        1.96506132719523       -0.88997987908913
H           -7.93602715914335        0.81555026366853       -1.34299435923889
H           -7.93950611102142       -0.81879252433602        1.32016218978965
H           -6.67900105963082       -1.96816511541713        0.87029312095272
H           -7.93931632189464       -1.53746510695992       -0.28694185646160
H           -7.26719701137305        1.05574748390959        2.32308911268939
H           -5.97132767845325        1.86707066328982        4.22395869210176
H           -3.49367629222970        1.76671988639695        4.16375627295348
H           -2.36022529867249        0.87910713316318        2.18233455824958
H           -1.92617123915842        2.07363441546544       -0.52114898571756
H            0.54946366208730        2.07241161636198       -0.51480139296266
H            3.10068160679371        3.50574568221120       -0.86125398741083
H            4.34521770885521        5.59982113746531       -1.29637558306406
H            6.81080625063203        5.61254462758560       -1.17882252832821
H            8.02785365251191        3.53708068581397       -0.62788401125191
H            6.77070808642689        1.44892875835612       -0.19468885523317
H            3.09765619994841       -3.51040992732990        0.87006154604599
H            4.34058097662868       -5.60479775109541        1.30820507684668
H            6.80637379533653       -5.61852754249261        1.19514561193489
H            8.02524346406003       -3.54369017082780        0.64586629919748
H            6.76971922618501       -1.45518022086366        0.20975090458788
H            0.54751029279228       -2.07655949681083        0.51630295385245
H           -1.92813467810933       -2.07714885625826        0.51576914870666
H           -2.35382836495953       -0.88262566128904       -2.18889102218211
H           -3.48147777020840       -1.77018225100820       -4.17365345328263
H           -5.95895246365963       -1.87000223029806       -4.24133054625013
H           -7.26039336862166       -1.05837965439575       -2.34441848547835
