  128
       -201.52526303
 O          7.9027654629       -4.1341041057       -0.6310193328
 P          7.1891519951       -2.8478305352       -0.6377193158
 C          7.8090462413       -1.7044799145       -1.9113062973
 C          8.9792269081       -2.0631336053       -2.5672825699
 C          9.4882847889       -1.2559381673       -3.5683316004
 C          8.8187612078       -0.0959591968       -3.9244222566
 C          7.6450077612        0.2566303474       -3.2768916133
 C          7.1393145656       -0.5416065286       -2.2674697261
 C          7.3364687575       -1.9891923751        0.9625370150
 C          6.3542119872       -2.0792972637        1.9357785903
 C          6.5648193219       -1.5051100299        3.1770606105
 C          7.7533131609       -0.8461299953        3.4451196593
 C          8.7456783228       -0.7769919656        2.4799601405
 C          8.5389150148       -1.3554046430        1.2405306957
 C          5.4170463578       -3.0284197415       -0.9857389374
 C          5.0264609049       -4.2331545101       -1.5648369006
 C          3.7157801212       -4.4858939132       -1.9346961233
 C          2.7297542240       -3.5266770355       -1.7412360203
 C          3.0885485828       -2.3216773607       -1.1632625976
 C          4.4257150221       -2.0719099705       -0.7851229202
 O          4.5637145587       -0.8418971603       -0.2263704325
 C          3.3373002728       -0.2690322468       -0.2328002414
 C          2.9607135792        1.0098206074        0.2297370615
 P          4.0207338644        2.2137250162        1.0787596331
 O          3.3540867098        3.5184810472        1.2254834902
 C          5.6049433368        2.3350006044        0.1930325229
 C          6.6802175889        1.4981086575        0.4526580087
 C          7.8781909072        1.7050438080       -0.2075381715
 C          8.0006823932        2.7311460658       -1.1303708307
 C          6.9204589584        3.5563204789       -1.4011864696
 C          5.7241909078        3.3606325250       -0.7356323814
 C          4.3978551160        1.4758494397        2.7053356236
 C          5.4268583570        2.0321783829        3.4521360839
 C          5.6323085376        1.6255320252        4.7574803925
 C          4.8031373834        0.6687801347        5.3219054229
 C          3.7733034426        0.1160227463        4.5780458773
 C          3.5674783748        0.5204544179        3.2698666359
 C          1.6510277191        1.3783986330        0.0918662493
 C          0.6249543704        0.5464083640       -0.4697982502
 C         -0.7159826752        0.9620554621       -0.5290498301
 C         -1.7483914155        0.1502526331       -1.1189826638
 C         -3.0542471438        0.5311694059       -1.1211884080
 C         -3.4707025905        1.7460385075       -0.5369192570
 C         -4.9137949973        2.1639293395       -0.5814257856
 C         -5.8677633901        1.0110253906       -0.3850629298
 C         -7.0902384364        0.9701988955       -1.0441436243
 C         -7.9760877358       -0.0667562538       -0.8257648585
 C         -7.6555703712       -1.0823070850        0.0708582941
 N         -8.5427649357       -2.1441223909        0.2867875902
 C         -8.2202085075       -3.4848074357        0.2262304682
 C         -7.0120794196       -4.0893061386       -0.0936906188
 C         -6.9669450029       -5.4708460580       -0.1096715334
 C         -8.0938198001       -6.2378803600        0.1756026884
 C         -9.3053361356       -5.6411746961        0.4725000850
 C         -9.3749850849       -4.2559234472        0.4952076932
 C        -10.4416534142       -3.3215768582        0.7368176087
 C        -11.7814239140       -3.4662963659        1.0660455858
 C        -12.5422685128       -2.3275013012        1.2561832482
 C        -11.9788361930       -1.0595810519        1.1359172369
 C        -10.6464208015       -0.8901169513        0.8088027907
 C         -9.8835744318       -2.0298420228        0.5937410022
 C         -6.4406957824       -1.0360694973        0.7502360551
 C         -5.5604890908        0.0014118732        0.5220088091
 C         -5.2502740046        3.2523956898        0.4215727618
 C         -5.2972974727        3.1663363037        1.7955113799
 C         -5.6339032398        4.3020182047        2.5213726594
 C         -5.9189589925        5.4972751788        1.8784767427
 C         -5.8787679297        5.5874079766        0.4967259150
 C         -5.5441912241        4.4575225977       -0.2330963424
 C         -5.4274922748        4.2477731058       -1.6648741675
 C         -5.6044591494        5.1180641739       -2.7285484330
 C         -5.4424287696        4.6360092650       -4.0164876002
 C         -5.1083182613        3.3071282202       -4.2409601416
 C         -4.9213826663        2.4317849155       -3.1812010002
 C         -5.0892653342        2.9043584297       -1.8960461637
 C         -2.4728022218        2.5918850750       -0.0122777726
 C         -1.1622739110        2.2252589718       -0.0006496590
 C          1.0498425244       -0.7561792160       -0.9341259703
 C          2.3604082185       -1.1256651932       -0.8098337504
 H          9.4719198125       -2.9813163582       -2.2807210756
 H         10.4017182012       -1.5323264661       -4.0743152712
 H          9.2094672203        0.5325894221       -4.7112101423
 H          7.1218257025        1.1594192475       -3.5572139994
 H          6.2358511337       -0.2587620207       -1.7536307023
 H          5.4339800460       -2.6038323822        1.7235812001
 H          5.8017572730       -1.5696567508        3.9374435131
 H          7.9090690649       -0.3953752907        4.4137801376
 H          9.6783261358       -0.2770596632        2.6975613546
 H          9.3050302200       -1.3304237052        0.4766058146
 H          5.7919395586       -4.9808554923       -1.7111506830
 H          3.4602693151       -5.4355842491       -2.3788134572
 H          1.7069977620       -3.7132589070       -2.0299594300
 H          6.5798081182        0.6987881155        1.1698459999
 H          8.7204776356        1.0633969061        0.0005416832
 H          8.9409725931        2.8875561671       -1.6385422746
 H          7.0151275276        4.3561707926       -2.1211889551
 H          4.8752655153        4.0071064003       -0.9076016409
 H          6.0539990965        2.7894263435        3.0012875131
 H          6.4303234111        2.0622216080        5.3402170749
 H          4.9566588140        0.3570699799        6.3448026400
 H          3.1236388328       -0.6257944033        5.0207294928
 H          2.7581450683        0.1033153637        2.6870634663
 H          1.4056582404        2.3672175555        0.4412460433
 H         -1.4867983157       -0.7855586782       -1.5840077258
 H         -3.7962475820       -0.1135818232       -1.5706264778
 H         -7.3451841694        1.7511805940       -1.7450204832
 H         -8.9112967841       -0.1060642738       -1.3639651142
 H         -6.1383818009       -3.5018703067       -0.3333103940
 H         -6.0382681746       -5.9652431025       -0.3530130847
 H         -8.0181367538       -7.3144906269        0.1542318075
 H        -10.1816242754       -6.2367926312        0.6781050904
 H        -12.2152276908       -4.4485172341        1.1753701650
 H        -13.5872262116       -2.4183469078        1.5113134938
 H        -12.5945560442       -0.1890698685        1.3058441258
 H        -10.2124553972        0.0958195357        0.7358805357
 H         -6.2015823737       -1.8068273263        1.4678798171
 H         -4.6188392203        0.0301927867        1.0498331282
 H         -5.0749069364        2.2384015053        2.3016321023
 H         -5.6727577396        4.2524580014        3.5994386927
 H         -6.1759870180        6.3679799739        2.4635490887
 H         -6.1022715469        6.5190108386       -0.0012549001
 H         -5.8624217686        6.1522005790       -2.5558039968
 H         -5.5757506716        5.3001520925       -4.8575273734
 H         -4.9907721410        2.9500774733       -5.2533159706
 H         -4.6560910562        1.4011590115       -3.3635652182
 H         -2.7624831161        3.5464570206        0.4011995935
 H         -0.4446680002        2.9029807576        0.4288988635
 H          0.3483362728       -1.4454969606       -1.3684277709
