  54
        -83.59380685
 N          4.9298972178       -2.6779071833        1.0144110322
 C          5.1064135784       -1.5865517496        0.6723891923
 C          5.3776643959       -0.2825289983        0.2650454719
 C          4.3426704967        0.7031336805        0.2141605794
 C          2.9742923242        0.5198554669        0.1285419306
 C          2.3394588307       -0.7474897070       -0.0776094498
 C          0.9875362556       -0.8636613151       -0.1306007814
 C          0.1436899534        0.2684490812        0.0059381147
 C         -1.2648139464        0.1823909558       -0.0184691835
 N         -2.0981915049        1.2177935556        0.0647605283
 C         -3.3482588392        0.7346740001        0.0098751812
 C         -4.4892547590        1.6351250985        0.0024989447
 C         -5.6513361188        1.3434472124       -0.7121275300
 C         -6.7064030119        2.2354187008       -0.7152498738
 C         -6.6174281934        3.4268585010       -0.0127590128
 C         -5.4586017811        3.7320551021        0.6838250635
 C         -4.3985435488        2.8470336307        0.6875678112
 C         -3.3143647059       -0.6716598805       -0.0961589783
 C         -4.3467368800       -1.6793028114       -0.0987900877
 C         -5.5306311262       -1.4944171735        0.6241232035
 C         -6.5006562984       -2.4753979849        0.6364157586
 C         -6.3140791673       -3.6561817177       -0.0670626199
 C         -5.1431439954       -3.8528566437       -0.7820793621
 C         -4.1645651175       -2.8791650732       -0.7954392344
 N         -1.9865132277       -0.9844638131       -0.1336076272
 C          0.7590576357        1.5390066750        0.1689933400
 C          2.1076979385        1.6609297775        0.2195460269
 C          6.7476993428        0.0362632863       -0.0147622494
 C          7.7779542070       -0.8632168618        0.3345628769
 C          9.0956808396       -0.5669606091        0.0755761695
 C          9.4395834350        0.6268972310       -0.5477990425
 C          8.4395781108        1.5177467065       -0.9166594434
 C          7.1174430574        1.2342165688       -0.6596499940
 H          4.6824166905        1.7279949866        0.2810674084
 H          2.9567138824       -1.6214981109       -0.1982886041
 H          0.5540483405       -1.8412736333       -0.2891032293
 H         -5.7178709720        0.4263563272       -1.2788200925
 H         -7.6016418067        2.0029298489       -1.2729656351
 H         -7.4466844703        4.1185942634       -0.0151881592
 H         -5.3829609186        4.6644882919        1.2234590664
 H         -3.4873247678        3.0709009742        1.2202464933
 H         -5.6687726306       -0.5844908440        1.1880298002
 H         -7.4069089796       -2.3222739490        1.2029262190
 H         -7.0764096573       -4.4200776541       -0.0564798799
 H         -4.9932308254       -4.7693809007       -1.3331803327
 H         -3.2653384419       -3.0326680869       -1.3758146826
 H         -1.6105119502       -1.9170310222       -0.1578800346
 H          0.1103864200        2.3966504915        0.2516717773
 H          2.5610394922        2.6333933912        0.3481530537
 H          7.5175364943       -1.7898781650        0.8239430181
 H          9.8670260862       -1.2675078608        0.3598306569
 H         10.4745428337        0.8572221107       -0.7491523973
 H          8.6999718254        2.4405105287       -1.4145845496
 H          6.3563372752        1.9285516779       -0.9807301862
