54
 energy: -83.632583337639 gnorm: 0.000193761153 xtb: 6.7.1 (edcfbbe)
N            4.91899807065723       -2.61348724028238        1.22890349797128
C            5.10356803764826       -1.54246611948111        0.82804298701410
C            5.37761046663149       -0.26276426952693        0.35582124301016
C            4.34202784284109        0.72008303488330        0.26237555061680
C            2.97369444538981        0.53370075821314        0.17024399652286
C            2.33920197458436       -0.73728071330359       -0.01411815362705
C            0.98709751615057       -0.85548905415202       -0.07536607397578
C            0.14155316918375        0.27893314677313        0.03155361476008
C           -1.26800667558906        0.19219084532890        0.00006144734588
N           -2.10103512727277        1.23044814055668        0.06032899289436
C           -3.35271373281949        0.74737031912528        0.00658353545350
C           -4.49181014616745        1.65085907356133       -0.01857178351445
C           -5.65282036909455        1.35135573454224       -0.73291696674151
C           -6.70797759455447        2.24363186572726       -0.74956900654815
C           -6.62028987436402        3.44441629723477       -0.06208434836647
C           -5.46232244597051        3.75822888788994        0.63295963070164
C           -4.40275312013149        2.87225881806425        0.65133026231487
C           -3.31916514466326       -0.66142429912165       -0.07489975819093
C           -4.35256250155338       -1.66958264151162       -0.06849465514595
C           -5.54327352261798       -1.47140131668880        0.64018548467723
C           -6.51559954278437       -2.45075541291013        0.65814674524390
C           -6.32355762943708       -3.64348090744160       -0.02407071272418
C           -5.14475275247099       -3.85415560161609       -0.72296415456035
C           -4.16459337629499       -2.88160198109787       -0.74337719623466
N           -1.99090660036604       -0.97548140246321       -0.09851881254534
C            0.75719155613785        1.55272785464505        0.16932419655724
C            2.10583775941771        1.67618352055661        0.22728162169297
C            6.74891037800507        0.04216209135991        0.05984273474918
C            7.78111847612456       -0.83747625318843        0.45110886828785
C            9.09869827391998       -0.55235665379614        0.17576747168773
C            9.43999752105198        0.61027415732604       -0.50585170406176
C            8.43792738137348        1.48090014415746       -0.91592112830114
C            7.11624538378147        1.20810870199172       -0.64290206506830
H            4.68166691531079        1.74674944469525        0.29870948957807
H            2.95691722108840       -1.61531083020377       -0.11412168430697
H            0.55643000007990       -1.83666077403639       -0.21753792969791
H           -5.71832630262990        0.42717479378783       -1.28770247712979
H           -7.60214144302410        2.00369505970370       -1.30626863423020
H           -7.44887537712022        4.13705084285770       -0.07498417586131
H           -5.38695306589324        4.69720908824647        1.16171001793950
H           -3.49397414424665        3.10304829910486        1.18564225345177
H           -5.68563794304621       -0.55253695109617        1.18791381228330
H           -7.42776836790718       -2.28626316939977        1.21211716496407
H           -7.08761678293107       -4.40595718763260       -0.00933897913388
H           -4.99016993132104       -4.78032216351465       -1.25671793213507
H           -3.26051387515256       -3.04626952542736       -1.31254347559246
H           -1.61604034815431       -1.90980500796472       -0.10631472868987
H            0.10963277891401        2.41360118283797        0.22698370287021
H            2.55724172274499        2.65175785758276        0.33612806415230
H            7.52382289219419       -1.74042329465986        0.98653037798146
H            9.87144353904547       -1.23744060056644        0.49329558400036
H           10.47475466652083        0.83115269845093       -0.71980438624326
H            8.69603747085098        2.37883925013285       -1.45879464194014
H            6.35304623393725        1.88460744139122       -0.99534467529727
