54
 energy: -83.632571189869 gnorm: 0.000100736633 xtb: 6.7.1 (edcfbbe)
N            4.93963249556214       -2.67699274598051        1.03886571576624
C            5.11686801259934       -1.58625115117537        0.69141414983614
C            5.38365164533934       -0.28367583862483        0.28169277963745
C            4.34548981675156        0.69982647039280        0.24151270705626
C            2.97655254619116        0.51586340417107        0.15271214508553
C            2.34094947827891       -0.74733521982612       -0.07574212280810
C            0.98854355524605       -0.86362484111765       -0.13289791763134
C            0.14350486089718        0.26603024145203        0.01916354724956
C           -1.26607239200424        0.17971131432298       -0.00976542091345
N           -2.09949860634267        1.21630257109038        0.07046817646918
C           -3.35098722136311        0.73365690968415        0.00963180646150
C           -4.49010578794477        1.63726569401863       -0.00232744183099
C           -5.65081400825511        1.34777648526336       -0.72133959953015
C           -6.70566078394156        2.24053123292689       -0.72667625963141
C           -6.61792383922505        3.43207834694402       -0.02329846970943
C           -5.46022988912540        3.73618193975007        0.67651638413656
C           -4.40098357341316        2.84967769823268        0.68373565435297
C           -3.31697266690293       -0.67380247168988       -0.09498967245708
C           -4.34921031889236       -1.68291944185203       -0.10028239227364
C           -5.54001759149809       -1.49453479667538        0.61105474827572
C           -6.51049439232926       -2.47582603123293        0.61914346062450
C           -6.31648619514030       -3.66115762277614       -0.07533565785793
C           -5.13773748084810       -3.86211238291351       -0.77721937712658
C           -4.15955864276982       -2.88746589901255       -0.78813515260550
N           -1.98853898200147       -0.98646403620048       -0.12766720308156
C            0.75985905098404        1.53380244940302        0.20154583248481
C            2.10875443154860        1.65503797518917        0.25849564185639
C            6.75193778388834        0.03777840059090       -0.01156158826383
C            7.78857746740408       -0.85869564578085        0.32634512042361
C            9.10306641532179       -0.56037282400222        0.05026248177232
C            9.43673759256884        0.63327246446553       -0.57955085969218
C            8.43023996286066        1.52238442530530       -0.93563671258154
C            7.11160303334511        1.23629419826423       -0.66149084725334
H            4.68391249059177        1.72464553653377        0.31812023940263
H            2.95791264486687       -1.62084326129102       -0.21235932444768
H            0.55710841713347       -1.83875439771627       -0.31007992023254
H           -5.71607677003062        0.43126136605922       -1.28873544589739
H           -7.59954244205772        2.00837380145450       -1.28710876503275
H           -7.44620929178273        4.12516046534720       -0.02755257664759
H           -5.38483926160912        4.66810018425614        1.21760621546070
H           -3.49235366665689        3.07313288677651        1.22138790371830
H           -5.68380314943826       -0.58188907496605        1.16871394955540
H           -7.42266793487377       -2.31888419996294        1.17529184811442
H           -7.07893119424885       -4.42534135841052       -0.06793213332865
H           -4.98158283984156       -4.78238626419538       -1.32061887994383
H           -3.25560730991764       -3.04458335440497       -1.35961313099652
H           -1.61303720223903       -1.92031911545487       -0.14907487884842
H            0.11269045520348        2.39190054005522        0.29428695512844
H            2.56061581334855        2.62584127716917        0.40245281899248
H            7.53729767616322       -1.78604987007414        0.82134090923211
H            9.87912014382584       -1.25934036176009        0.32672626810099
H           10.46901971356559        0.86441495367701       -0.79464265024546
H            8.68243529524637        2.44541923691130       -1.43764475737435
H            6.34502938216036        1.92897121088538       -0.97264757857659
