54
 energy: -83.699472137197 gnorm: 0.000052516658 xtb: 6.7.1 (edcfbbe)
N            5.07305121307529       -2.82673538679441        0.53770801821713
C            5.15763690758487       -1.70105166413216        0.31425837449790
C            5.37243642981786       -0.33358734640825        0.05158758602097
C            4.38499384410456        0.58118232862842       -0.10685146753947
C            2.95397962363426        0.40327889085909       -0.10595208021215
C            2.31848845411345       -0.84022406106948       -0.20222819141638
C            0.94466498619819       -0.93841021365781       -0.19372717972964
C            0.14617710118890        0.20452596320485       -0.08769539866222
C           -1.29549826164221        0.14682245038298       -0.06493913605740
N           -2.08644420970814        1.19703293534696        0.01457143935608
C           -3.36391887811512        0.73903934098736        0.01104294840226
C           -4.48388019044726        1.67126198571982        0.02769196723919
C           -5.68023929447489        1.38757284577604       -0.62909059518565
C           -6.71944534838377        2.29902115580748       -0.60852541542412
C           -6.57845931728701        3.50590871919346        0.05786277234349
C           -5.38580183649952        3.80274582832662        0.69794170045338
C           -4.34408753695600        2.89477212571959        0.68100118065915
C           -3.35847669995220       -0.65132496676897       -0.06330678260798
C           -4.41275676190523       -1.65046889267330       -0.02701015868880
C           -5.52950194434254       -1.47536068264619        0.79166743798275
C           -6.51886175674113       -2.43837301855848        0.83761019192119
C           -6.41082813377642       -3.59024253711984        0.07344123169308
C           -5.30390122294584       -3.77529602903869       -0.73833155846438
C           -4.30919692395178       -2.81611546791807       -0.78740470421672
N           -2.03539710680451       -0.99834474062466       -0.12441830637556
C            0.77461174559667        1.45259075795110       -0.00539253931089
C            2.14511529034533        1.54808279767061       -0.02082596170615
C            6.79742640026122        0.04513851563185        0.00340452999502
C            7.72298511570318       -0.59182888709333        0.82981184924630
C            9.05701921639219       -0.23043658536831        0.79631799297364
C            9.48890028918756        0.76225337972775       -0.06829464428702
C            8.57840122020487        1.39060248245869       -0.90263942226522
C            7.24270704549905        1.03600000319635       -0.87055418574756
H            4.70501383850082        1.60986493695864       -0.22029128613973
H            2.90835854187791       -1.73778968438104       -0.29709748185758
H            0.49661755267790       -1.91812162555297       -0.27407491312157
H           -5.78983086256412        0.45572388442458       -1.16451334791585
H           -7.64285122218756        2.06886264747094       -1.12060398734046
H           -7.39341665341096        4.21497089577152        0.07237918278190
H           -5.26840835557078        4.74628323492175        1.21147639984735
H           -3.40850643565278        3.11517058972700        1.17225806987074
H           -5.60809183385407       -0.58221769680090        1.39329087987704
H           -7.37758698073553       -2.29172578843978        1.47614861299523
H           -7.18645478239603       -4.34061063151576        0.11091671865917
H           -5.21490901772412       -4.66977955814913       -1.33761558374832
H           -3.45838524238600       -2.96013396616170       -1.43920099042859
H           -1.68950359126054       -1.94373425874175       -0.15334246680454
H            0.15312605621060        2.33111258881346        0.06615253542565
H            2.61236367188495        2.52011252179143        0.04452924826845
H            7.38918086132980       -1.36427084352296        1.50847683079350
H            9.76147129980647       -0.72750826629428        1.44697132858980
H           10.53180539736476        1.04101484802419       -0.09561064829777
H            8.91157233967248        2.15749533330476       -1.58657790655102
H            6.54503398914426        1.51374610808956       -1.54262439257717
