116
 energy: -173.127398733807 gnorm: 0.000081135850 xtb: 6.7.1 (edcfbbe)
C            8.47017423177306       -0.40690228206114       -2.51526668989787
C            7.43271070839200        0.20756632921310       -3.46571998605383
C            7.88821472429291       -0.05848593725774       -4.90288602390270
C            7.37180070979345        1.72742230842759       -3.25574094003867
C            6.06395264500266       -0.38595362405940       -3.16634663193724
C            5.30448061607030       -1.06380710546263       -4.12051396409734
C            4.05065290958970       -1.54377721771275       -3.81437959307031
C            3.51996764072404       -1.37770965478109       -2.53616778709091
C            4.27271456827312       -0.75280428533415       -1.52544437217183
C            5.52500089707846       -0.25306310302469       -1.89800239252327
B            3.62867192609728       -0.67017200134606       -0.12218036436548
C            4.16454849022533       -0.22966051652622        1.25936892370542
C            5.49720325471976        0.04052552282721        1.58775896586364
C            5.91477102435930        0.46279886994938        2.83842202896177
C            7.39406532565854        0.71619316424863        3.08935684562358
C            8.16429380924035       -0.59525033420325        2.87844411937089
C            7.90122162067694        1.78011116548517        2.10535956859180
C            7.67381520498869        1.21181065829102        4.51058123115934
C            4.93815452194984        0.62641901676768        3.82139409176594
C            3.61706902496086        0.34042369566097        3.55873501811851
C            3.22333945644260       -0.10228751283866        2.29688107228371
O            1.89716392929796       -0.39297276390759        2.18165400729392
C            1.37900955999816       -0.90468678707581        1.04550216147174
C            0.02597016123512       -1.21376474395713        1.04668050393730
C           -0.55975199264330       -1.69342175125914       -0.11750039632356
N           -1.94896067042238       -1.89572273084854       -0.15399253492150
C           -2.56143518064205       -3.12115595371759       -0.26435690991805
C           -1.97653603067564       -4.37004995822910       -0.41428711140445
C           -2.81124836434842       -5.46887205595372       -0.45782597729768
C           -4.19213020449376       -5.32879620500391       -0.33918569520001
C           -4.77650491339973       -4.08754139303302       -0.18269834877147
C           -3.96146000804512       -2.96102855268016       -0.15474272741163
C           -4.19873318891173       -1.54933597718705       -0.00238545228178
C           -5.37491526007036       -0.80997726481527        0.13431791883629
C           -6.70038807010020       -1.45739971298299        0.15415700009832
C           -7.47110660324970       -1.44005798915886        1.31130244246195
C           -8.72657311713406       -2.01833696719740        1.32397184398204
C           -9.22556585719101       -2.62227663807090        0.18263749073809
C           -8.45825309442812       -2.65694049842905       -0.96947776321391
C           -7.20174312502416       -2.08048088397447       -0.98411984666241
C           -5.21587103741162        0.56716347515682        0.25938444401245
C           -3.93830751659531        1.19138698353107        0.27356850707073
C           -2.76142792312140        0.45351896182413        0.13765410271014
C           -1.43833695773709        1.10987359578513        0.12913178209221
C           -0.93035799525196        1.68802176354081        1.28847214929917
C            0.32851250146091        2.25986656427323        1.29253887326879
C            1.09243428003249        2.26609863911971        0.13754785821024
C            0.58268097093196        1.71726285348574       -1.02700874164700
C           -0.67685187044554        1.14657018249345       -1.03396520031547
C           -2.92177658194471       -0.92324473079052        0.00557293317090
C           -4.17439566601570        2.60344987002656        0.41705562505746
C           -3.35458786306081        3.72618898714569        0.45210748369161
C           -3.93627808583819        4.97124666134302        0.58514915166457
C           -5.31881966959963        5.11729729996462        0.67122548895193
C           -6.15698289217260        4.02112759485735        0.62429790230736
C           -5.57552354670559        2.76723698448596        0.50283335460818
N           -6.19053013002022        1.53993184320304        0.40198109310999
C           -7.58436756906969        1.37611493396361        0.30372081003528
C           -8.39902229556821        1.72749331214824        1.37347520587024
C           -9.76946503653369        1.57166765293500        1.27574639664787
C          -10.33185923961707        1.06713841340554        0.11580799974232
C           -9.52182276498042        0.73532112217813       -0.95732007504952
C           -8.15263421945513        0.89794882075876       -0.87168456813764
C            0.20023243158334       -1.94815101738407       -1.25155482111930
C            1.55336799133061       -1.63520015884469       -1.23969979431598
C            2.16553555570363       -1.09021806689824       -0.10134884550933
O            2.24905522557657       -1.84602513750665       -2.37921648150562
H            8.49142959931884       -1.48870700400007       -2.62947284107675
H            8.24358668648582       -0.17875105888084       -1.47757571497898
H            9.46076459873680       -0.01637825249365       -2.73870448910084
H            8.87090179309811        0.38208343177324       -5.05919884863894
H            7.20355310574888        0.38845053527925       -5.61992302223407
H            7.96409479703993       -1.12572495564404       -5.09804504572611
H            8.33855193967329        2.17570455646438       -3.47525636074559
H            7.10513669419461        1.97653851951432       -2.23221843570475
H            6.62869671111801        2.16837269148297       -3.91692397793407
H            5.67681306407574       -1.21101062789093       -5.12087102961661
H            3.45145433168337       -2.04352641174404       -4.56032843655381
H            6.08286087989485        0.28319636217216       -1.14806657329854
H            6.23444586501122       -0.11546174932865        0.81742990401043
H            9.22538606598216       -0.44138206276402        3.06332931716125
H            8.04515739666321       -0.96690467316905        1.86432133818154
H            7.80135208128253       -1.35817138051190        3.56399755000770
H            7.33533518645658        2.70197009984526        2.22260584304762
H            8.95151336541991        1.99339769111528        2.29270098425626
H            7.80284990276427        1.44889161075830        1.07541554349394
H            7.15955325353813        2.14998290175723        4.70610977467353
H            8.74172333259835        1.38272062758493        4.63132186242835
H            7.36749139535168        0.47526513272896        5.24968212659539
H            5.20041045826179        0.96502626370872        4.81016881100648
H            2.86488553652015        0.44103004074477        4.32637898980826
H           -0.56519358006761       -1.05183217576670        1.93313385556241
H           -0.90425263834487       -4.47392545055127       -0.48624614371758
H           -2.38637619320922       -6.45475628036952       -0.57685474497266
H           -4.81564546919772       -6.21024809402862       -0.36453579436851
H           -5.84573274277668       -3.99749115880026       -0.07517681879475
H           -7.07889923313950       -0.97205449403401        2.20285063096090
H           -9.31870932438109       -1.99632430450055        2.22716320678029
H          -10.20895440355676       -3.06878406432487        0.19211659862520
H           -8.84091733784344       -3.13402070227630       -1.86025677931653
H           -6.60081329720238       -2.10411599696562       -1.88218175434944
H           -1.52582873550261        1.67508873889340        2.19019234705197
H            0.71921543468920        2.69416829104776        2.20121691855998
H            2.08306531826079        2.69718646314224        0.14450124885676
H            1.17213833489260        1.73021016226589       -1.93253106548548
H           -1.07560264446472        0.72046680282064       -1.94323513199505
H           -2.28387287068005        3.62926801284583        0.36831670825941
H           -3.30994389812453        5.85053229097338        0.61590165777157
H           -5.74301921312152        6.10595236421137        0.76787126273543
H           -7.23004574566679        4.13360661466551        0.67022183196650
H           -7.95052782840492        2.10933527952041        2.27898819995293
H          -10.39970363269659        1.83906487610362        2.11112029741811
H          -11.40138138129435        0.93774247554088        0.04567558495740
H           -9.95907032484592        0.35365259793102       -1.86775878006467
H           -7.51520130006959        0.65508878266412       -1.70840619920578
H           -0.25893171007292       -2.33409105213206       -2.14773976612497
