116
 energy: -173.129380692337 gnorm: 0.000153389353 xtb: 6.7.1 (edcfbbe)
C            9.38539687693694       -3.57874798335300       -0.91962957530196
C            8.80379124391304       -2.26800795364764       -1.46739429335002
C            9.17022270866253       -2.11555640178020       -2.95042909248036
C            9.43894360400176       -1.10564822266572       -0.69877098266892
C            7.28909081084119       -2.30404256705475       -1.33243716248061
C            6.56551787320137       -3.30702215329615       -1.98586262163866
C            5.19915435918990       -3.38845684873188       -1.86832029537279
C            4.50060418729758       -2.45534453666960       -1.10034155103017
C            5.17961209468494       -1.40610459616868       -0.45832511922231
C            6.57585870762527       -1.38571439207692       -0.58719184944574
B            4.31737434959793       -0.39628196300615        0.33503717658996
C            4.63075466218329        0.95688367305317        1.01578682227972
C            5.82517984854540        1.68355935998513        0.90809646468135
C            6.05539528763558        2.87855062423370        1.56118166826860
C            7.35909994960636        3.65322304174932        1.44157802160864
C            7.98131955085415        3.80301528723410        2.83702813727323
C            8.38096177927659        2.95629237503035        0.53854639415193
C            7.06453893756406        5.03942660924146        0.85153537191178
C            5.02889271148643        3.38244202621911        2.36670315594588
C            3.82914513731508        2.72333170147774        2.48303151353247
C            3.61519621609446        1.52249386528389        1.80459065484678
O            2.37269761975077        0.98918068585795        1.97181484990288
C            1.96325520269617       -0.07790872239478        1.25312601982965
C            0.62067697486522       -0.41849719532916        1.32794126031437
C            0.14072957812623       -1.45799426768337        0.54046031014326
N           -1.23742514733596       -1.71071936268485        0.50992394381459
C           -1.83285818697881       -2.89461260794508        0.87999553657341
C           -1.23475397084134       -4.07759990233214        1.28911985163259
C           -2.05885049309168       -5.13911259290826        1.60633338677572
C           -3.44437863360057       -5.02639435659016        1.51968295050082
C           -4.04386211657441       -3.84339394230778        1.13539371012918
C           -3.23804560985124       -2.75414731647989        0.82246884200649
C           -3.49613051515354       -1.40287456478215        0.39854490130911
C           -4.68568655263936       -0.71169774006171        0.16383869548819
C           -6.00242002462987       -1.33871532945625        0.38528428948142
C           -6.41627701808749       -1.67515054774072        1.67022592123055
C           -7.66451886809756       -2.23120227529198        1.87955317876572
C           -8.51063434874217       -2.46273569963751        0.80818923104332
C           -8.09862727187222       -2.14685150793537       -0.47513311829464
C           -6.85167746658734       -1.58902943687744       -0.68678614670875
C           -4.54781028455713        0.58842838936006       -0.31418049151638
C           -3.28155956964173        1.15902161869157       -0.61776939979951
C           -2.09053086441435        0.47620250710016       -0.36401676905129
C           -0.77843520415312        1.07539837057845       -0.67927643378258
C           -0.32725607369196        2.18978085005961        0.02221962501013
C            0.92376809632691        2.71979836146138       -0.23344405819901
C            1.73762703645495        2.14623954532438       -1.19595590205196
C            1.28411872137884        1.05530823779219       -1.91823073576614
C            0.03203241710435        0.52513805396002       -1.66650206443469
C           -2.22774836377641       -0.79784077009063        0.18230532638405
C           -3.54519274590500        2.44218282428042       -1.21354547819390
C           -2.74549914798306        3.44246287047889       -1.75564799818817
C           -3.34783015256969        4.58332329069578       -2.24724047084565
C           -4.73002988704439        4.74794177716365       -2.19869859415370
C           -5.54862069098435        3.76480899921776       -1.67930151423616
C           -4.94918837959559        2.60610699318178       -1.20660215042823
N           -5.54059781071516        1.49132806521039       -0.65595924314573
C           -6.91624806513688        1.38112600799067       -0.39137926242483
C           -7.36648479966802        1.22020930535968        0.91457032301973
C           -8.71942929377187        1.10154893199675        1.16685937712709
C           -9.63097890493214        1.16326218089732        0.12616914996153
C           -9.18570309010988        1.35070690831795       -1.17116821915902
C           -7.83266371019199        1.45888934799302       -1.43394139247817
C            1.00192036035665       -2.22531032175220       -0.23398426308642
C            2.35304985780794       -1.90447616915399       -0.26039965375618
C            2.85638316064863       -0.80749500343473        0.45441442228482
O            3.15457217699906       -2.66260300590640       -1.04075992029509
H            9.11345343748444       -3.70199192539384        0.12668756552636
H           10.47071333583557       -3.56842001212846       -0.99560746049803
H            9.01437069220013       -4.43817277841038       -1.47100599860222
H           10.25098005990679       -2.06833377023513       -3.06653015272602
H            8.73945341910338       -1.20052247960936       -3.35179753215718
H            8.80214400012951       -2.95144383910537       -3.53861150730934
H           10.51868623563015       -1.13141957763250       -0.83178730110252
H            9.23115031302974       -1.17993346914683        0.36625058451260
H            9.07938337177355       -0.14831238575243       -1.06901335136529
H            7.07627260163314       -4.04482682712130       -2.58565648973534
H            4.64327693634315       -4.17506358660746       -2.35554788091881
H            7.10198068089774       -0.61565670237631       -0.05167751732839
H            6.58363590621423        1.27913875701698        0.26171237719752
H            8.92828817502999        4.33456220971671        2.77009367315297
H            8.16522499236488        2.82339789579427        3.27345107502185
H            7.32848070362357        4.35640551361470        3.50610692020340
H            8.00043809391275        2.84906579794104       -0.47470557965474
H            9.28985490174669        3.55301133577269        0.49316882954377
H            8.64386743780896        1.97588158807323        0.92917205403081
H            6.60610711034589        4.94030447389061       -0.13029323179496
H            7.98720956509154        5.60630999191225        0.74605662850286
H            6.38885408125694        5.60513240511937        1.48699880996158
H            5.16176855607364        4.31071986963464        2.90128975196595
H            3.02909785042800        3.12254383536995        3.08778534553870
H           -0.04717887451639        0.15106192440518        1.95319327136228
H           -0.16071818180315       -4.16217816131264        1.35682803962046
H           -1.62143226313510       -6.07440099926862        1.92341789828737
H           -4.05960598821429       -5.88021838881787        1.76212779850282
H           -5.11802505563243       -3.77002141543534        1.07449419138815
H           -5.75344543423460       -1.49255307836635        2.50416943615460
H           -7.97876461145716       -2.48440150644597        2.88185727420525
H           -9.48745976734028       -2.89314321895901        0.97271576018413
H           -8.75238995155595       -2.33409212192330       -1.31440076225199
H           -6.52722074649909       -1.34635836544155       -1.68855029304758
H           -0.96052887393858        2.62972052181497        0.77938144466392
H            1.27062181307153        3.57651042114391        0.32580532198096
H            2.72313509796178        2.54820548950662       -1.38148787886669
H            1.91191400989783        0.61225513446136       -2.67777013683984
H           -0.32223621228608       -0.32460800165960       -2.23198090012342
H           -1.67392960765527        3.32908613128254       -1.79693117065268
H           -2.73761996057296        5.36594765788615       -2.67324741249926
H           -5.16968562586808        5.65902515399116       -2.57729732165469
H           -6.62005497461923        3.89286468643438       -1.63910336888804
H           -6.65054753889689        1.18614539310257        1.72189198789864
H           -9.06427356547698        0.96651320144061        2.18107261739650
H          -10.68757185659208        1.06921436224369        0.32676486368201
H           -9.89463111758804        1.40440912396833       -1.98425128657881
H           -7.47666719632385        1.58813581543234       -2.44552565325409
H            0.62757452918134       -3.03721335503793       -0.83678835498870
