99
 energy: -149.119643282733 gnorm: 0.000135145607 xtb: 6.7.1 (edcfbbe)
C            1.10528224946491        2.65118247984149        1.82698146660937
C            0.05012183014546        1.61004054577778        1.43068559066444
C           -1.31024185054860        2.18648163201518        1.75487087526231
C           -2.04851880805292        1.69747877922341        2.82345280129727
C           -3.26735564593086        2.26399890060310        3.15332017072302
C           -3.75554601794321        3.32901393280627        2.41829736365403
C           -3.02400750431624        3.81944306164292        1.34867981329444
C           -1.80537856812868        3.25626022670627        1.01685952917936
N            0.14437137203897        1.32989219755179        0.00824781354586
C           -0.99425992439712        0.99768402052289       -0.72749829523590
C           -1.97870630355617        0.17189343298758       -0.21676240661182
C           -3.09210515107090       -0.15232080991268       -1.01792460930082
N           -4.15060536039730       -0.90836559257445       -0.43773328189761
C           -5.20325675952500       -0.23579081539778        0.14784272271997
C           -5.22049870151769        1.16548613387616        0.12867552506414
C           -6.26599976534497        1.86415833446627        0.68691902683997
C           -7.31166677859784        1.18089676238116        1.28791830851923
C           -7.29408831406364       -0.20157672625983        1.31658804928684
C           -6.25873832479208       -0.93426050302148        0.75353438086419
C           -6.29687029799379       -2.44778749412476        0.80376318994100
C           -6.32750860924624       -2.89217126520053        2.27838645757959
C           -7.56456732909274       -2.93359297347959        0.07572709351357
C           -5.08762504798358       -3.06698021937538        0.13455542333455
C           -4.95847512668267       -4.44767322899589        0.08447100536937
C           -3.87532334151072       -5.06042165022759       -0.51927165588389
C           -2.88403892682955       -4.28122305192883       -1.09595336428985
C           -2.98494158433044       -2.90913440261146       -1.06213699362761
C           -4.08031505707064       -2.28378078721336       -0.44967504097775
C           -3.17377469043953        0.28759709522497       -2.33943698466006
C           -2.18229198440694        1.09232008082178       -2.85557304673743
C           -1.10925117081008        1.47404794469727       -2.04264262354323
S            0.15061872702251        2.60417021925407       -2.52367465496898
O            0.19661328333370        2.76845698364868       -3.95365248907554
O            0.01610232156738        3.80706156502483       -1.72326297815826
C            1.51752575086955        1.67460732327931       -1.94002909359468
C            2.69265099254415        1.44901141692625       -2.67305031097461
C            3.73990150120870        0.78151623172755       -2.09035631097118
C            3.62754165038628        0.31685733751957       -0.76899633706851
N            4.72687716629474       -0.31893950023501       -0.13492682982118
C            5.41322591389482        0.35827677734704        0.85297525521253
C            5.05587897229030        1.68097011347351        1.15985446842261
C            5.69721991454480        2.37282964317048        2.16060855163612
C            6.72075437029866        1.76568910933309        2.87404118375378
C            7.10446656663923        0.47680301628063        2.54806684964527
C            6.47715878892677       -0.24536888799091        1.54305158493792
C            6.97295460442205       -1.63285083904165        1.19586927436566
C            8.44338310769220       -1.52585250677449        0.74879983854413
C            6.86069996030280       -2.53099673444672        2.44255105090557
C            6.16589685127233       -2.25923453152805        0.07880577977794
C            6.48594114076524       -3.53208215191463       -0.36958159767965
C            5.75893552806466       -4.16416517680450       -1.36317557398647
C            4.66216203471468       -3.52124443805174       -1.91893873484919
C            4.32158288295516       -2.25754032612232       -1.49644048427385
C            5.07631669813995       -1.59815448798783       -0.51310426915352
C            2.42525956344913        0.49111143683132       -0.04818399832241
C            1.37665085013370        1.17507145135814       -0.62623988232331
H            2.10876583191285        2.23638504223030        1.81737024415389
H            0.88951469951236        3.01586792489689        2.82878057178108
H            1.06206318723633        3.48580225231318        1.13144947802883
H            0.20531668919205        0.69167568904279        2.02100052959541
H           -1.66773981290779        0.86806403264099        3.40490451279983
H           -3.83465676167652        1.87372036657354        3.98573420728978
H           -4.70275357021757        3.77541330480104        2.68199901650906
H           -3.40082263867574        4.64987006674074        0.77030883013247
H           -1.24147577546641        3.64213135875410        0.17941995114744
H           -1.92224813314955       -0.22332791251301        0.78439943305943
H           -4.40219040999888        1.69743837544226       -0.32928124542385
H           -6.26599553842278        2.94222001959722        0.65070861316235
H           -8.13581438739863        1.71937741511407        1.73015095125620
H           -8.11555966013821       -0.71805532536820        1.78950097258537
H           -6.36750080201135       -3.97497393749022        2.35584168795314
H           -5.43177342812997       -2.54312658031696        2.78847782785309
H           -7.19464350505204       -2.48192634694630        2.78792433218927
H           -7.63578775376992       -4.01717529389511        0.10301838283832
H           -7.53748423028824       -2.61663378107114       -0.96494177844681
H           -8.45763078687696       -2.52169348363320        0.53678879594179
H           -5.72174887068458       -5.06979342134084        0.52658981573473
H           -3.80672889295335       -6.13717345544499       -0.54076267227621
H           -2.03370475114264       -4.74467761778746       -1.57261881154053
H           -2.21857375768348       -2.29793527158147       -1.51220766846153
H           -4.03034308792343        0.01081624436783       -2.93583178548036
H           -2.21670906894627        1.47040784609797       -3.86370925583730
H            2.74503759450419        1.83774406433885       -3.67639137419517
H            4.66741807245119        0.62828068587397       -2.62173273415331
H            4.27760554716687        2.16109543244602        0.58856898541770
H            5.40371407644168        3.38744825331541        2.38273541041537
H            7.22628358299478        2.29668984361323        3.66564670088961
H            7.92085571263477        0.02924423416527        3.09412079245217
H            9.05664533803727       -1.09544092608651        1.53527889032516
H            8.51692569239659       -0.88987239827303       -0.13118670856917
H            8.84478031340700       -2.50412739796342        0.50034845534998
H            5.82057017962408       -2.60345879527681        2.75449925498416
H            7.22632861088876       -3.53199741264992        2.23233116315255
H            7.43913644663973       -2.12325441356155        3.26656614223192
H            7.32369756784872       -4.05463733842078        0.06642481910292
H            6.03813701587470       -5.15348518303653       -1.69110044906278
H            4.07173833541964       -4.00904901897700       -2.67946935790789
H            3.46142794372428       -1.76205791658658       -1.91750284147817
H            2.34590278298803        0.06744072522069        0.94125646500436
