99
 energy: -149.119647706804 gnorm: 0.000179366871 xtb: 6.7.1 (edcfbbe)
C            1.11421483267133        2.73836501749115        1.67885123977923
C            0.05791775392235        1.67812505550107        1.34046432936985
C           -1.30235125661625        2.26772994290309        1.64005355892983
C           -2.04005901044271        1.82609089547036        2.72944695294901
C           -3.26082520979876        2.40353961312729        3.03212324780752
C           -3.75136797973516        3.43246192276898        2.24884712241789
C           -3.02008648029720        3.87593329945391        1.15872683685551
C           -1.79970838124066        3.30151305882745        0.85378762466483
N            0.14688353520582        1.32714543974601       -0.06649764614721
C           -0.99479152126173        0.96334111985891       -0.78251748519854
C           -1.97814523372953        0.16316251596876       -0.23107118817643
C           -3.09478566225443       -0.19598777277956       -1.01264253142752
N           -4.14978612128930       -0.92650014910072       -0.39479046547008
C           -5.20332126753137       -0.23057039357457        0.16083884268325
C           -5.22724821817522        1.16801265629464        0.07229152649140
C           -6.27386376820121        1.88872698154456        0.59942979960195
C           -7.31415237223604        1.23130850786615        1.23766063384912
C           -7.28977099142496       -0.14795641742964        1.33506721075210
C           -6.25301398761005       -0.90295130416884        0.80515650785717
C           -6.28255986307890       -2.41210815064685        0.93253371341417
C           -6.30378571139196       -2.78055796903889        2.42814385187346
C           -7.55081563028497       -2.94148894440686        0.23661995190819
C           -5.07286875005231       -3.05822057291649        0.29021924495522
C           -4.93625665296240       -4.43892767458855        0.30995729215530
C           -3.85207515389736       -5.07587727759191       -0.26635844219279
C           -2.86755731183835       -4.32177222024709       -0.88653405841523
C           -2.97599664090298       -2.95037420466937       -0.92239111551324
C           -4.07216270003365       -2.30036787136621       -0.33739900947987
C           -3.18102761406700        0.18402784647521       -2.35242579417764
C           -2.19007660924038        0.96219087923811       -2.90853011570667
C           -1.11289996517956        1.37833895292234       -2.11804928853814
S            0.15093768911792        2.47796171117851       -2.65560096141781
O            0.19252241513115        2.57492319009663       -4.09182828385425
O            0.02646407423698        3.71747747222159       -1.91139548298549
C            1.51503788014894        1.56903448065553       -2.03329906954990
C            2.68597659866016        1.30000954729442       -2.75827273763949
C            3.73240340797609        0.65765561480761       -2.14590957536150
C            3.62306608254064        0.26279756215845       -0.80232487081840
N            4.72327777629601       -0.34005091994736       -0.13713597495123
C            5.42620422321562        0.39706744768718        0.79438161970465
C            5.08397731753642        1.74115175761118        1.01215410358730
C            5.74531208568692        2.49566536033004        1.95283864273138
C            6.77328463034343        1.93042777413684        2.69374908071820
C            7.13915004186550        0.61717190161358        2.45700424123310
C            6.49135602328262       -0.16820903856338        1.51429360915050
C            6.96450562851462       -1.58451825094318        1.26553004357302
C            8.43154958904725       -1.53289203445765        0.79805038498837
C            6.85253156172137       -2.38610358912956        2.57642287233681
C            6.13765240809706       -2.27960432661654        0.20492465390262
C            6.43469716051488       -3.58683759003700       -0.15094496740752
C            5.69097224332106       -4.27799144480782       -1.09132394472450
C            4.60192087069487       -3.65923574655506       -1.68813885189465
C            4.28373830839398       -2.36283240419236       -1.35699302046761
C            5.05335203490222       -1.64702599940949       -0.42628599429388
C            2.42444469474629        0.47860626886699       -0.08702989561652
C            1.37652224742867        1.13659005766006       -0.69593808292714
H            2.11814251627090        2.32433473699762        1.68238357988147
H            0.90471211765667        3.15122033020872        2.66311487951374
H            1.06562756473641        3.53793349151947        0.94364090558291
H            0.21658084819004        0.79059621081923        1.97534967270693
H           -1.65768681009686        1.02484338711815        3.34816291130738
H           -3.82803956561667        2.04971111186001        3.88073354461076
H           -4.70029860968934        3.88736557782863        2.49087445338818
H           -3.39871021635417        4.67814577794248        0.54293086082432
H           -1.23626566251493        3.64985634359663       -0.00024572528312
H           -1.91816825175208       -0.18631637615186        0.78676720126211
H           -4.41294514419471        1.68009784552918       -0.41456351545171
H           -6.27912551806569        2.96369209578843        0.51008377083248
H           -8.13916566102518        1.78731864742863        1.65592448809924
H           -8.10685394468524       -0.64399513712610        1.83661109069709
H           -6.33738200565211       -3.85817520473196        2.56109651212821
H           -5.40757712696971       -2.40111035814339        2.91518052777738
H           -7.17074468194762       -2.34932615028577        2.92034851454620
H           -8.44403620306430       -2.51083287732348        0.67988292276886
H           -7.61609922964105       -4.02254511048695        0.32045327096773
H           -7.53003287321250       -2.67886566345284       -0.81921202692740
H           -5.69423113683568       -5.04181176105552        0.78649642128734
H           -3.77743366218397       -6.15191969057580       -0.23304632460676
H           -2.01665521631264       -4.80440131531858       -1.34271806268453
H           -2.21509421899687       -2.35893716665393       -1.40678538805296
H           -4.04033640647898       -0.11805229280017       -2.93238159378914
H           -2.22753663696653        1.29352414393996       -3.93287858803846
H            2.73650939640583        1.63667925986143       -3.78034458438634
H            4.65682509971476        0.47217746362649       -2.67235051175708
H            4.30100241982314        2.18686997058206        0.41972282554912
H            5.46378292202965        3.52620188605474        2.10658923426452
H            7.29504378807459        2.51140462428764        3.43833772750687
H            7.95744943462427        0.20061191797092        3.02432984201885
H            8.50485744739527       -0.96554874630671       -0.12769497885062
H            8.81646953152158       -2.53284920153045        0.61969559580301
H            9.05900344011155       -1.05416011678569        1.54437236653283
H            7.20274977585718       -3.40496309137671        2.43804101477674
H            7.44437366459158       -1.92640866482338        3.36271452647460
H            5.81464933991863       -2.42061539578753        2.90208162872846
H            7.26736014487862       -4.08944271900110        0.31710493999655
H            5.95203918110014       -5.29323698175403       -1.34705969504611
H            4.00015511376493       -4.19114518460615       -2.40919775071956
H            3.43018556399141       -1.88425712175855       -1.80997386183160
H            2.34725022023517        0.10687712314652        0.92321807199717
