99
 energy: -149.222006907728 gnorm: 0.000086058717 xtb: 6.7.1 (edcfbbe)
C            1.10893316783372        2.46476172614136        1.81892351669532
C            0.06252904265037        1.42804117178664        1.39189921586898
C           -1.29690209112986        2.00204730777408        1.72829750406251
C           -2.05119629050055        1.47018892032887        2.76488128061575
C           -3.28067014022658        2.01506716700122        3.09129817234477
C           -3.76382639167078        3.10290775068058        2.38688806956222
C           -3.01259816683720        3.64261451669854        1.35599062464074
C           -1.78412475712210        3.09953064049013        1.02662642564146
N            0.15550100077414        1.17963548426689       -0.04871634125387
C           -0.99316193054891        0.92018404602789       -0.78506521823039
C           -2.02938514826632        0.13976614061110       -0.26759294903841
C           -3.16374600096572       -0.10652080882403       -1.02410810251089
N           -4.22279689101518       -0.85601833626203       -0.44827468914577
C           -5.30249740347988       -0.17055321027575        0.08944404440610
C           -5.34124242867218        1.22422531693654        0.01694081278236
C           -6.40885037444238        1.92972135956661        0.53025567526348
C           -7.45402271057197        1.25592367472713        1.13508608536894
C           -7.40919641250207       -0.12314111998935        1.22131621181016
C           -6.34924779432639       -0.85938730094075        0.70989740309309
C           -6.35500061395427       -2.37049323906076        0.84643977404417
C           -6.40696794675981       -2.72756654412337        2.34317347128286
C           -7.59368656102381       -2.92782944473161        0.12181701834580
C           -5.11579929443641       -2.99951705260025        0.23807368427180
C           -4.95858087696611       -4.37824907248933        0.27633744608669
C           -3.85737919714672       -5.00745883772147       -0.27423984146562
C           -2.88207463303003       -4.24625318128285       -0.89255650478905
C           -3.01309147693415       -2.87447291001534       -0.94561498092176
C           -4.11861442012477       -2.23575783923961       -0.37684038078059
C           -3.27421775166828        0.37220738807024       -2.32838027902793
C           -2.24392613975037        1.12688661834528       -2.85625450070962
C           -1.13581158658748        1.40720659118611       -2.08303117411924
S            0.15827692884605        2.50373056766637       -2.61609327132996
O            0.21772066345459        2.59658625502259       -4.04718237485634
O            0.02141690522969        3.72763352677612       -1.86575036674416
C            1.56090294532726        1.62643793072333       -1.96430961732213
C            2.74992678053099        1.50552781504881       -2.65364920657858
C            3.82947481654903        0.88520535482054       -2.05424964530228
C            3.68754978938049        0.37166700040137       -0.76617207867854
N            4.78435241806020       -0.26797353319291       -0.13328431801133
C            5.49093620693324        0.42387009472734        0.83990395639064
C            5.14168179270364        1.74340596442559        1.14148908466696
C            5.81400682693427        2.45033676582622        2.11626301425435
C            6.85706811387403        1.85501894377874        2.80202441489963
C            7.22289616074771        0.56013393260015        2.48448723531075
C            6.56299576154649       -0.17484200307151        1.50889343372660
C            7.03397407762093       -1.58020865491661        1.18605705324363
C            8.49518200256231       -1.50744089124952        0.70685759930271
C            6.93196177755152       -2.44258566286451        2.45738184721630
C            6.19519770194280       -2.22321053200418        0.09779296874171
C            6.48759863728536       -3.51569930273811       -0.31627760631229
C            5.74378234242868       -4.16225107750956       -1.28572546889635
C            4.66479522853438       -3.51167310936039       -1.85600645047710
C            4.35289056598418       -2.22659683019622       -1.46483067613989
C            5.11764504309812       -1.56343870640039       -0.50120218803984
C            2.47957170534502        0.46467512450886       -0.09085352188681
C            1.38935922302629        1.10934177192777       -0.68042099021781
H            2.11784725628973        2.06337699497125        1.82025487727636
H            0.87617693176158        2.80685440329415        2.82490274453246
H            1.07095629413546        3.31732456225412        1.14494410387770
H            0.21559658391916        0.49540479013605        1.95636550166158
H           -1.67629160614736        0.62092322870456        3.32045011256336
H           -3.86228974809638        1.58743589324365        3.89431823711734
H           -4.72351888902177        3.52613391892416        2.64111146612491
H           -3.38320318406102        4.49306956403659        0.80357549532422
H           -1.20961248310980        3.52351912262340        0.21535632330867
H           -1.96323980665918       -0.28195141138937        0.72197673311129
H           -4.52409831148810        1.75893217951822       -0.44151667771666
H           -6.42072147271724        3.00643481985152        0.45415754247523
H           -8.29622535323304        1.79654829907614        1.53937584448103
H           -8.22863846073220       -0.63597224675267        1.70190264224623
H           -6.41699644418602       -3.80458336722271        2.48564071450714
H           -5.53335640771370       -2.32173781991276        2.84999698339793
H           -7.29678361712163       -2.31484847445154        2.81017318970069
H           -7.64522161360649       -4.00896298371498        0.21612924320534
H           -7.54623694300296       -2.67732774704389       -0.93623727028707
H           -8.50654422894349       -2.50625465036524        0.53323803775372
H           -5.71618318243274       -4.98590075393494        0.74764226583092
H           -3.76646340229234       -6.08175896766874       -0.22545298050940
H           -2.01870581279274       -4.71795931646093       -1.33759753975929
H           -2.25467970816658       -2.28519165962720       -1.43850250263345
H           -4.16340634914418        0.16163533470862       -2.90121701844243
H           -2.28497127462680        1.52807824867242       -3.85661695462019
H            2.81024922754367        1.92130666489752       -3.64698141167393
H            4.77549616743763        0.79302521428608       -2.56390233609975
H            4.34395935301941        2.22301612012232        0.59505200032693
H            5.52329170267417        3.46715905987055        2.33372608813835
H            7.38975442656568        2.39616751562448        3.56882615280433
H            8.05066897515139        0.11444026989566        3.01490322674499
H            9.13296881010689       -1.07040024781167        1.47009313425578
H            8.56029412178496       -0.89199182337563       -0.18844616055863
H            8.87606419977732       -2.49718439693954        0.47096099948109
H            5.89594674722135       -2.49492885748546        2.78704403764719
H            7.28319572993252       -3.45341094655279        2.27017896631197
H            7.52697056528847       -2.01986945849138        3.26207047476182
H            7.31939633788296       -4.03996976446103        0.12917690102567
H            6.00075558569564       -5.16647523957425       -1.58596677699868
H            4.06163478803422       -4.00263333821131       -2.60495804389017
H            3.50433962171681       -1.72801346517819       -1.90788942690600
H            2.39245296290355        0.01319228436207        0.88522634996081
