  99
       -149.22194616
 C          1.0986268679        2.5058570804        1.8082365368
 C          0.0675924768        1.4478206155        1.3962189170
 C         -1.2997761455        1.9959324972        1.7417100318
 C         -2.0342720426        1.4512748677        2.7859628142
 C         -3.2744783963        1.9677333087        3.1179138119
 C         -3.7888009817        3.0395250898        2.4110041332
 C         -3.0562276575        3.5938438459        1.3743376163
 C         -1.8167178422        3.0796639918        1.0399174141
 N          0.1574609239        1.1942907694       -0.0436535895
 C         -0.9894109061        0.9296297848       -0.7808643968
 C         -2.0240428804        0.1466991527       -0.2642278626
 C         -3.1565221398       -0.1035375471       -1.0224136352
 N         -4.2163096779       -0.8515800048       -0.4466990303
 C         -5.3040956598       -0.1646028530        0.0728733492
 C         -5.3475017770        1.2291952849       -0.0145012344
 C         -6.4221844068        1.9359917511        0.4818293929
 C         -7.4706090396        1.2645617078        1.0836835318
 C         -7.4214252228       -0.1132826841        1.1846684739
 C         -6.3537783045       -0.8507076876        0.6912618090
 C         -6.3551213808       -2.3602097916        0.8440310406
 C         -6.4257455469       -2.7016818502        2.3435620517
 C         -7.5816790585       -2.9300512155        0.1086146218
 C         -5.1053667853       -2.9904000583        0.2591164354
 C         -4.9418953883       -4.3677098075        0.3170306128
 C         -3.8311368106       -4.9983809115       -0.2120611449
 C         -2.8524099644       -4.2402345233       -0.8287442031
 C         -2.9898777384       -2.8700494635       -0.9017290197
 C         -4.1050300361       -2.2295316452       -0.3542455332
 C         -3.2651446151        0.3715722510       -2.3282103440
 C         -2.2361385573        1.1284071394       -2.8554155593
 C         -1.1310710742        1.4142616257       -2.0799101719
 S          0.1603192419        2.5155348421       -2.6091314191
 O          0.2205180724        2.6136011431       -4.0399545942
 O          0.0196579824        3.7362336063       -1.8542116644
 C          1.5636212169        1.6380218321       -1.9591391463
 C          2.7513922445        1.5125141220       -2.6497204915
 C          3.8290750533        0.8882906104       -2.0509904969
 C          3.6874977931        0.3782598198       -0.7614951762
 N          4.7824938151       -0.2676076370       -0.1317925058
 C          5.4974285981        0.4192994504        0.8385936934
 C          5.1538506178        1.7388199064        1.1464723574
 C          5.8340049310        2.4407122356        2.1194360113
 C          6.8795654301        1.8402178778        2.7968469908
 C          7.2402561724        0.5455962550        2.4723891373
 C          6.5721749177       -0.1844819079        1.4987228582
 C          7.0397161081       -1.5886128114        1.1655969977
 C          8.4929434803       -1.5115447409        0.6632305134
 C          6.9598516826       -2.4548013597        2.4358035638
 C          6.1855724562       -2.2297838852        0.0882921083
 C          6.4680125713       -3.5238964556       -0.3276041822
 C          5.7105735331       -4.1685527911       -1.2877111397
 C          4.6280636982       -3.5140722365       -1.8467106468
 C          4.3266300446       -2.2268392592       -1.4544168769
 C          5.1050791338       -1.5656275115       -0.5004392679
 C          2.4815463968        0.4786425041       -0.0836072541
 C          1.3919237796        1.1230080232       -0.6745090770
 H          2.1151939933        2.1243040832        1.7914920600
 H          0.8759470980        2.8420332254        2.8183654114
 H          1.0323083497        3.3577307366        1.1355437962
 H          0.2428748388        0.5210411292        1.9638850991
 H         -1.6353629661        0.6137138509        3.3426202975
 H         -3.8399063245        1.5302791954        3.9272045862
 H         -4.7579944136        3.4390625734        2.6674941150
 H         -3.4510900171        4.4326848596        0.8209876468
 H         -1.2566135559        3.5144970753        0.2242490497
 H         -1.9585686867       -0.2730058952        0.7262568031
 H         -4.5281418686        1.7623343253       -0.4707094273
 H         -6.4369308806        3.0118778377        0.3951079863
 H         -8.3185961793        1.8060980259        1.4742585464
 H         -8.2436606776       -0.6243430172        1.6623732372
 H         -6.4326216444       -3.7771216140        2.4973902923
 H         -5.5610184861       -2.2862491294        2.8577100345
 H         -7.3236808492       -2.2886112427        2.7942636618
 H         -7.6298979305       -4.0104351004        0.2129615203
 H         -7.5211487501       -2.6898006644       -0.9511450904
 H         -8.5016051140       -2.5081730365        0.5036610095
 H         -5.7021533002       -4.9731649255        0.7868891545
 H         -3.7352601177       -6.0715316494       -0.1477573227
 H         -1.9809340368       -4.7131387065       -1.2564932283
 H         -2.2288858647       -2.2836126126       -1.3939819648
 H         -4.1525461454        0.1573005717       -2.9024616868
 H         -2.2761688176        1.5276772228       -3.8565984833
 H          2.8121296158        1.9270005498       -3.6435434957
 H          4.7736208554        0.7902871005       -2.5622946739
 H          4.3545056709        2.2224844425        0.6059713610
 H          5.5477617503        3.4577631488        2.3416325216
 H          7.4184950222        2.3774061960        3.5620914966
 H          8.0708073420        0.0963425721        2.9954134726
 H          9.1415146254       -1.0740058867        1.4170744114
 H          8.5423354863       -0.8944384750       -0.2319172839
 H          8.8720739715       -2.5000897049        0.4194813134
 H          5.9295624765       -2.5094252377        2.7824309512
 H          7.3092996763       -3.4645320281        2.2400015518
 H          7.5677449397       -2.0340585436        3.2317417458
 H          7.3031727200       -4.0507522792        0.1084207055
 H          5.9599962081       -5.1741503356       -1.5896962636
 H          4.0142039800       -4.0035218099       -2.5879061795
 H          3.4755870001       -1.7250778258       -1.8890017886
 H          2.3951351285        0.0320280516        0.8947779230
