  99
       -149.11757736
 C          1.1021837111        2.7218521367        1.6835236815
 C          0.0523294213        1.6578209047        1.3363559158
 C         -1.3099121993        2.2405729277        1.6401347909
 C         -2.0426402756        1.7929332803        2.7305289340
 C         -3.2642339367        2.3653713829        3.0393025608
 C         -3.7604707487        3.3957727026        2.2616318680
 C         -3.0341835694        3.8453122200        1.1705930247
 C         -1.8132954089        3.2754402345        0.8591929627
 N          0.1439797812        1.3188004120       -0.0738956194
 C         -0.9934477211        0.9501570439       -0.7922682101
 C         -1.9802423981        0.1531035996       -0.2413471246
 C         -3.0919655456       -0.2113378688       -1.0251200337
 N         -4.1514633983       -0.9338461444       -0.4052214695
 C         -5.1991049349       -0.2281864193        0.1466711550
 C         -5.2173536948        1.1708373004        0.0458598494
 C         -6.2575817540        1.9004613546        0.5712360483
 C         -7.2985727861        1.2530083361        1.2211594320
 C         -7.2808028167       -0.1260705969        1.3294767193
 C         -6.2511161463       -0.8907104012        0.8011791227
 C         -6.2880670827       -2.3983582950        0.9379881557
 C         -6.3093819984       -2.7578291020        2.4358533651
 C         -7.5606913290       -2.9247448503        0.2474107374
 C         -5.0839299107       -3.0559352993        0.2979857054
 C         -4.9535120990       -4.4363990133        0.3274502338
 C         -3.8728952161       -5.0830050269       -0.2461297287
 C         -2.8848478478       -4.3375230795       -0.8740014708
 C         -2.9866273129       -2.9667654531       -0.9201073478
 C         -4.0797600478       -2.3065554920       -0.3381902094
 C         -3.1723280562        0.1571236922       -2.3689211883
 C         -2.1787850920        0.9319440798       -2.9247024571
 C         -1.1078510337        1.3560886178       -2.1311490224
 S          0.1478895918        2.4651352358       -2.6671505701
 O          0.1979956637        2.5555425978       -4.1035063702
 O          0.0084656828        3.7064365252       -1.9294921010
 C          1.5220163825        1.5758820421       -2.0315503541
 C          2.6977326694        1.3222403191       -2.7497181324
 C          3.7480165069        0.6863186469       -2.1326843030
 C          3.6306927750        0.2836162215       -0.7958865166
 N          4.7283253410       -0.3245931261       -0.1289948301
 C          5.4398333698        0.4127941177        0.7941975739
 C          5.1006752732        1.7579340721        1.0147951257
 C          5.7734275596        2.5125752429        1.9464823847
 C          6.8111116009        1.9474211752        2.6755297297
 C          7.1719918236        0.6326322464        2.4374926293
 C          6.5118237148       -0.1541214644        1.5052873080
 C          6.9753197333       -1.5736051437        1.2577726080
 C          8.4362172612       -1.5313966185        0.7701398960
 C          6.8783755023       -2.3670413954        2.5749994231
 C          6.1318426105       -2.2720020307        0.2129604233
 C          6.4153846801       -3.5833182362       -0.1367701904
 C          5.6563165701       -4.2761950082       -1.0640726693
 C          4.5651067678       -3.6530777928       -1.6548686129
 C          4.2605262959       -2.3522575180       -1.3311269347
 C          5.0446424092       -1.6353629717       -0.4123076233
 C          2.4274937017        0.4845945991       -0.0878519701
 C          1.3767050498        1.1392124175       -0.7003006780
 H          2.1086812862        2.3141135142        1.6879417733
 H          0.8877810549        3.1284869214        2.6693295415
 H          1.0511594027        3.5252503241        0.9526637918
 H          0.2145690243        0.7667394485        1.9654068243
 H         -1.6555351039        0.9906821161        3.3450105090
 H         -3.8274318216        2.0067150217        3.8884985362
 H         -4.7098559973        3.8469930377        2.5086159027
 H         -3.4173171746        4.6488037661        0.5592692497
 H         -1.2539214302        3.6281071878        0.0043128699
 H         -1.9259299864       -0.1897795726        0.7789409687
 H         -4.4030657852        1.6747967127       -0.4493388961
 H         -6.2588023642        2.9746199769        0.4726934281
 H         -8.1183543692        1.8167534767        1.6390941722
 H         -8.0984118800       -0.6133668051        1.8386982407
 H         -6.3507076904       -3.8343742903        2.5751571634
 H         -5.4095175626       -2.3821623930        2.9191005981
 H         -7.1723435425       -2.3173847007        2.9267431803
 H         -8.4505020209       -2.4847363937        0.6884087450
 H         -7.6327675482       -4.0045674564        0.3395766043
 H         -7.5392411221       -2.6700581730       -0.8102854306
 H         -5.7131899833       -5.0326197539        0.8099376391
 H         -3.8028975796       -6.1590145099       -0.2046703522
 H         -2.0370747485       -4.8283001020       -1.3272094003
 H         -2.2238635127       -2.3821418768       -1.4097812607
 H         -4.0283882281       -0.1500705368       -2.9507769611
 H         -2.2108295512        1.2559418119       -3.9516336514
 H          2.7521125210        1.6635394650       -3.7700528969
 H          4.6766809160        0.5104458739       -2.6547421359
 H          4.3100215905        2.2031700715        0.4323401897
 H          5.4942554353        3.5432138979        2.1034910955
 H          7.3427834310        2.5294315808        3.4121344449
 H          7.9962930121        0.2163808267        2.9962844032
 H          8.4993652446       -0.9711687530       -0.1605847274
 H          8.8143841182       -2.5342985069        0.5938916962
 H          9.0754589681       -1.0498886090        1.5045031828
 H          7.2247739907       -3.3874500578        2.4382936631
 H          7.4811632596       -1.9038757826        3.3509745702
 H          5.8444963555       -2.3972261176        2.9139188533
 H          7.2499086393       -4.0885875625        0.3251191650
 H          5.9069413023       -5.2950700464       -1.3150215967
 H          3.9524683609       -4.1860234864       -2.3658627166
 H          3.4071148250       -1.8699961401       -1.7805036111
 H          2.3470578862        0.1073560215        0.9199423255
