110
 energy: -152.695900597407 gnorm: 0.000046797309 xtb: 6.7.1 (edcfbbe)
C           -4.40722152590507       -5.65991664334405       -2.98190868818993
C           -3.00154794978172       -5.09819045255284       -3.21667935228937
C           -2.83033404443148       -4.85645673614462       -4.72390943702884
C           -1.98503009919507       -6.14623333602148       -2.73918807289934
C           -2.76117106196757       -3.79331010125066       -2.46996067741033
C           -1.51452978214167       -3.16473388096576       -2.58674121554246
C           -1.20166267429185       -1.98748100610536       -1.93619338122083
C           -2.16792326270019       -1.41392567986241       -1.12467489087055
C           -3.44305002356307       -2.00585695825080       -1.01975026892918
C           -3.73106518353591       -3.19038056538551       -1.68539194381714
C           -4.22724736120648       -1.14709172049818       -0.17325633049975
C           -5.53437962363774       -1.21698104166633        0.29136644188885
C           -6.02238467849279       -0.22703166709181        1.12941893898674
C           -7.44884699824368       -0.22857351152921        1.66150082576143
C           -8.26714896982952       -1.41723928346772        1.14753478549794
C           -8.15231267473467        1.06211084386880        1.21518576742011
C           -7.41603415620273       -0.29921618870619        3.19548582769788
C           -5.15993431133003        0.81051446586990        1.50716246588875
C           -3.85638187645038        0.90193581562649        1.06180527619869
C           -3.39212710921305       -0.07211280117361        0.19227007381587
N           -2.14229722157913       -0.24056052562416       -0.38484162113900
C           -1.06302568741439        0.63224190071680       -0.26477277731169
C           -1.25663644893946        2.00618964458177       -0.39410051968551
C           -0.17084062871827        2.87143296412124       -0.28475949093717
C           -0.33391309113828        4.33288973500512       -0.43431342476859
O            0.56562505515276        5.06500570030422       -0.80493419028236
C           -1.67203870562627        4.88130978470584       -0.09169534972836
C           -2.29821639971791        5.83854629705263       -0.89314119149818
N           -3.47335429139963        6.35515085487062       -0.58455277391209
C           -4.04589194732872        5.92081848038533        0.52462128631084
N           -3.54022273321472        5.04085901439100        1.37044382737440
C           -2.35694704903529        4.53467342176293        1.07464448567094
C            1.10863858983548        2.36887225404529       -0.06388031220270
C            1.30751578190435        0.99715483495731        0.06505031584158
N            2.58544035243035        0.48929547075180        0.28468766546232
C            2.93449522006681       -0.48186067346846        1.21076239432915
C            2.16913137028433       -1.12600844051502        2.17021510718985
C            2.79489814693090       -2.04194099325063        2.99270815733324
C            4.16209444591665       -2.33592034371502        2.90638511602964
C            4.75365544206342       -3.37490354587716        3.84915446916072
C            6.25659765108765       -3.57754479395128        3.63280414660719
C            4.53872847380765       -2.92287320944571        5.30129853899915
C            4.05282834862105       -4.72152929112514        3.61391282201311
C            4.92309704173299       -1.65901922459038        1.96689266046073
C            4.31876055768278       -0.73416152939640        1.12523775500989
C            4.82977711773225        0.12374092549015        0.08991506440530
C            6.09752474769102        0.29871322307148       -0.44987760235617
C            6.28723904675471        1.20131835733898       -1.48384864539643
C            7.64909508129560        1.45263364309813       -2.11668360592463
C            7.58576917888950        1.09639226182708       -3.60953995793899
C            8.01462934873336        2.93530004170670       -1.95011260724185
C            8.75989791190791        0.61504124514164       -1.47528635545593
C            5.17480819102729        1.90146111677455       -1.96940729841255
C            3.90389652090403        1.74620342653702       -1.45235609584371
C            3.73349720936586        0.86343028715446       -0.39750726850178
C            0.21663458036555        0.13498823643085       -0.02729258592284
H           -4.51904910419473       -6.59463393103288       -3.52800691682838
H           -4.57525360140731       -5.86538553025379       -1.92704466959028
H           -5.16935558495626       -4.97061144966136       -3.33849466875024
H           -1.82187197368131       -4.52952946059453       -4.96229873709122
H           -3.52578547319228       -4.09107444016126       -5.06343928180572
H           -3.02968005445612       -5.77326747686255       -5.27503840286864
H           -0.96441776449639       -5.82832184308940       -2.93385876391762
H           -2.15116948164588       -7.09029342899671       -3.25414176220613
H           -2.09145392078863       -6.31338344717072       -1.66894715296891
H           -0.75490424609840       -3.60730188501270       -3.21281221141314
H           -0.23413081631035       -1.52984229284899       -2.07797879477427
H           -4.71496145670092       -3.61502891047731       -1.57865653072456
H           -6.14536417720814       -2.05027878176552       -0.01230157355055
H           -8.33492457063328       -1.40521280585772        0.06196210938552
H           -9.27767437624439       -1.36083244247180        1.54759815149363
H           -7.83198410049235       -2.36086650919910        1.46894702897507
H           -7.65293665878387        1.94378730737326        1.60757254810466
H           -9.18151512325916        1.06885797119863        1.56836326515508
H           -8.15984631423955        1.13004981706993        0.12881691396511
H           -6.89480442498725       -1.19811643762983        3.51942184524973
H           -8.42953305199812       -0.32645395228116        3.59052285880738
H           -6.90827342121373        0.56149313424685        3.62196547446638
H           -5.51327962794168        1.57925980291846        2.17703848763184
H           -3.22478001260446        1.70946146431672        1.39838637653731
H           -2.23935447721063        2.38456765659015       -0.62772599017030
H           -1.83770085637899        6.18270896404967       -1.81045603394971
H           -5.01776863728259        6.33072759653334        0.76675006272675
H           -1.93262365695288        3.84852611912938        1.79705572435259
H            1.93255173345041        3.05843332415762        0.03273266851075
H            1.11687684931346       -0.91647971437725        2.29126918978861
H            2.19127115636572       -2.54367158975252        3.73350056938695
H            6.62323678203366       -4.33343256984051        4.32468645714940
H            6.46390039811947       -3.92009869844245        2.62143768282826
H            6.80651053608367       -2.65773232017276        3.81911105456022
H            3.48213362045815       -2.83554194834097        5.53903866919225
H            5.00650785039801       -1.95403973539732        5.46659729507844
H            4.98270266269476       -3.64224730172145        5.98643668088516
H            4.47434996744302       -5.48256074854967        4.26751122490677
H            2.98677018642048       -4.65475004468381        3.81316395288457
H            4.18714762252186       -5.03999857630307        2.58182573295527
H            5.98263931132435       -1.82671989594096        1.87171357978477
H            6.91227522599650       -0.28179042884096       -0.05095090791194
H            7.29948227511395        0.05382240532302       -3.73516008092989
H            8.55945650619747        1.24572343342350       -4.07178805167596
H            6.86229491951364        1.71352925065770       -4.13523914725246
H            8.99496117827355        3.13032968998666       -2.38027568321423
H            7.29286004615368        3.58084016258443       -2.44313567605236
H            8.04191346378078        3.19958418800906       -0.89457350495766
H            8.86095685719944        0.84401545873144       -0.41676404506546
H            8.56694867781597       -0.44867841140700       -1.59498315126635
H            9.70813057861530        0.84043836039858       -1.95952970718968
H            5.30065696002664        2.59517852283320       -2.78668478601977
H            3.07474892041150        2.29601004821956       -1.87219583880403
H            0.36549726325159       -0.92798360880751        0.07676452292271
