  110
       -152.63792221
 C         -4.3338588573       -5.7352381495       -2.8086265652
 C         -2.9324526836       -5.1690297911       -3.0532977814
 C         -2.7479055650       -4.9885058700       -4.5666109696
 C         -1.9098599411       -6.1833809183       -2.5213116229
 C         -2.7134974362       -3.8333723491       -2.3586052385
 C         -1.4705505092       -3.2003266567       -2.4861682807
 C         -1.1734117019       -1.9981430570       -1.8764212915
 C         -2.1519550771       -1.4033229590       -1.0951861183
 C         -3.4251952588       -1.9988513110       -0.9864496872
 C         -3.6976564588       -3.2087327100       -1.6106479197
 C         -4.2247020485       -1.1147489014       -0.1830928343
 C         -5.5380933746       -1.1759948648        0.2634323882
 C         -6.0427220491       -0.1597766737        1.0579822930
 C         -7.4746893793       -0.1512400839        1.5714650050
 C         -8.2744941002       -1.3692272617        1.1009497405
 C         -8.1828359874        1.1115755714        1.0603910757
 C         -7.4595788808       -0.1536904449        3.1067564140
 C         -5.1923600723        0.8958943302        1.4103082700
 C         -3.8825973476        0.9785203868        0.9832938704
 C         -3.3991954655       -0.0237512464        0.1568965790
 N         -2.1421022158       -0.2072839728       -0.3964574713
 C         -1.0622683131        0.6629348428       -0.2766859096
 C         -1.2530781343        2.0360572355       -0.4075868091
 C         -0.1684206773        2.8995184282       -0.2862384746
 C         -0.3399146951        4.3656873190       -0.4073480048
 O          0.5438688379        5.1086139811       -0.7810760107
 C         -1.6804921627        4.8768364870       -0.0197124980
 C         -2.3522278666        5.8418211465       -0.7724153562
 N         -3.5418504047        6.2977846282       -0.4287370436
 C         -4.0855987187        5.7934811548        0.6642420104
 N         -3.5344855587        4.9020616174        1.4690025052
 C         -2.3353277761        4.4596518849        1.1407411834
 C          1.1095690188        2.3966035749       -0.0668405372
 C          1.3055853263        1.0243527302        0.0571598329
 N          2.5817421348        0.5128284169        0.2717879564
 C          2.9249428713       -0.4830899317        1.1697989626
 C          2.1582101293       -1.1468916280        2.1148311213
 C          2.7801862951       -2.0863066598        2.9126363392
 C          4.1449312801       -2.3861283198        2.8148111098
 C          4.7331564310       -3.4457949248        3.7346042295
 C          6.2308398844       -3.6613763973        3.4994458786
 C          4.5372682334       -3.0113090621        5.1940222649
 C          4.0158730066       -4.7806533533        3.4879010602
 C          4.9078760253       -1.6927394487        1.8899010711
 C          4.3074177091       -0.7432702008        1.0743382763
 C          4.8213406043        0.1371151244        0.0610428630
 C          6.0888594796        0.3172214937       -0.4764908098
 C          6.2807984161        1.2454886477       -1.4861096205
 C          7.6412807023        1.5041227253       -2.1160424136
 C          7.5703457797        1.1896964229       -3.6170533596
 C          8.0171023211        2.9782587150       -1.9102777876
 C          8.7468403779        0.6413575678       -1.5010935770
 C          5.1727114134        1.9659165523       -1.9505027013
 C          3.9023055734        1.8059821296       -1.4350228437
 C          3.7286542134        0.8964447998       -0.4036920538
 C          0.2148779227        0.1634087743       -0.0350504159
 H         -4.4309990845       -6.6931896384       -3.3153333214
 H         -4.5102309778       -5.8971204727       -1.7477111967
 H         -5.0990690783       -5.0695575971       -3.2010828814
 H         -1.7439057793       -4.6500682098       -4.8068493974
 H         -3.4548418126       -4.2535856935       -4.9461057982
 H         -2.9208255936       -5.9317865414       -5.0802100188
 H         -0.8912436214       -5.8648225884       -2.7243949888
 H         -2.0632191517       -7.1522660877       -2.9916340459
 H         -2.0217368911       -6.3001402320       -1.4452384308
 H         -0.7016939412       -3.6596471586       -3.0880887308
 H         -0.2089405135       -1.5374686451       -2.0276198426
 H         -4.6802889278       -3.6350776436       -1.5009332681
 H         -6.1391026916       -2.0234492005       -0.0196409904
 H         -8.3311918863       -1.4044921488        0.0153620628
 H         -9.2893455458       -1.3075974753        1.4882926968
 H         -7.8316763027       -2.2930075049        1.4662910819
 H         -7.6885232172        2.0132436945        1.4110958599
 H         -9.2131825779        1.1300444705        1.4091790453
 H         -8.1862235880        1.1259630195       -0.0277422842
 H         -6.9310155117       -1.0302068479        3.4760401480
 H         -8.4770122445       -0.1765301175        3.4913754293
 H         -6.9674000779        0.7313632769        3.4999365808
 H         -5.5596494313        1.6871645158        2.0449546478
 H         -3.2639934602        1.8014117758        1.3037596518
 H         -2.2329967388        2.4145481152       -0.6473795985
 H         -1.9173245899        6.2410682171       -1.6794411518
 H         -5.0713964643        6.1498091210        0.9310751796
 H         -1.8702406008        3.7664577107        1.8309702142
 H          1.9337816576        3.0834049695        0.0347301492
 H          1.1081325863       -0.9327272403        2.2458880702
 H          2.1760379395       -2.6017349164        3.6432777196
 H          6.5963135549       -4.4329036603        4.1740614784
 H          6.4235944081       -3.9879991374        2.4800785224
 H          6.7928972198       -2.7512668103        3.6957691576
 H          3.4839891208       -2.9105999406        5.4405288444
 H          5.0209507096       -2.0523088452        5.3683225714
 H          4.9751413758       -3.7463362750        5.8660336278
 H          4.4359591722       -5.5554210968        4.1257677413
 H          2.9528882959       -4.7059667802        3.6995861076
 H          4.1357153335       -5.0851511171        2.4500817474
 H          5.9656241064       -1.8651614763        1.7866811693
 H          6.8999070270       -0.2792199486       -0.0947224343
 H          7.2794008133        0.1524502608       -3.7701526731
 H          8.5423036209        1.3478477189       -4.0793753031
 H          6.8470626574        1.8238064679       -4.1218697687
 H          8.9945192772        3.1801697433       -2.3432191524
 H          7.2946823290        3.6411570521       -2.3778426808
 H          8.0548921310        3.2111884350       -0.8481153869
 H          8.8521874190        0.8408290118       -0.4372491850
 H          8.5450109278       -0.4170867701       -1.6483929086
 H          9.6955488350        0.8717902824       -1.9813951150
 H          5.3025599893        2.6796122437       -2.7490227886
 H          3.0761529866        2.3701601720       -1.8394154341
 H          0.3620581903       -0.8982288568        0.0717078941
