110
 energy: -152.694292881998 gnorm: 0.000047250375 xtb: 6.7.1 (edcfbbe)
C           -4.22921050938281       -4.52133297446204       -3.21789566737995
C           -3.77662126595414       -3.27943191115418       -4.00085451151170
C           -4.95855932527258       -2.70964327203057       -4.79949992761468
C           -2.69613374519711       -3.71507044225016       -4.99543180560016
C           -3.28655240313222       -2.22572329089660       -3.01640925710440
C           -1.98945684195599       -1.70787886029808       -3.05363245203321
C           -1.53610061408676       -0.76010271402123       -2.15243334925151
C           -2.40577493467366       -0.31841976999685       -1.17031870238136
C           -3.73122491328407       -0.80053308346108       -1.13134479248401
C           -4.15950809549103       -1.74855296528451       -2.04656877058377
C           -4.38721920977695       -0.11325152778815       -0.05049997191767
C           -5.66687359908725       -0.18239694746156        0.47589813457667
C           -6.01571575302503        0.60275308997399        1.56790288102000
C           -7.43056993106955        0.51247928288801        2.12441285465329
C           -7.66412275378567        1.44856232244049        3.31423536328872
C           -7.69288467738008       -0.92713936256574        2.59205835656365
C           -8.42953537522194        0.88979799997173        1.02008887742803
C           -5.04194833903358        1.43681125976713        2.12294262390033
C           -3.75598138406626        1.52370928624105        1.61821089194100
C           -3.43117568532495        0.76009753378758        0.51018311073037
N           -2.23110456800101        0.62917180180749       -0.17238091493687
C           -1.05857521054657        1.33184967578893        0.09982236180841
C           -1.10396654456187        2.70896179606692        0.30490577119761
C            0.06635098833689        3.40460057746940        0.59940220633818
C            0.06436580581078        4.85687819210136        0.87268955744087
O            0.97211674975572        5.41673909957892        1.46187612864678
C           -1.10860550163341        5.63483445273859        0.39361347469425
C           -1.63259381842346        5.52916377783528       -0.89646571165759
N           -2.65805012412600        6.25872103708116       -1.29783277786186
C           -3.15940125411081        7.12196147468271       -0.43266073568308
N           -2.72658166941069        7.33322511875064        0.79817958946381
C           -1.71234519724376        6.59515043259197        1.20929626982399
C            1.28050160954124        2.72638923580036        0.68393007772638
C            1.33593121313296        1.35677512224128        0.44555548054088
N            2.55243338360190        0.68090519506754        0.50840061205937
C            2.79367059405903       -0.51244731165952        1.17201013693907
C            1.95662522930190       -1.28873665827730        1.95792203011235
C            2.47977743122107       -2.42971510788265        2.53383144338144
C            3.81249611383624       -2.82735971771554        2.36512240766406
C            4.28900285784109       -4.11071014147246        3.03161967966536
C            5.76243421331351       -4.41268688314421        2.74097283702444
C            4.11999123124341       -3.98214414298838        4.55286818050342
C            3.45112055919877       -5.28897536998105        2.51259387234833
C            4.64743516258970       -2.02510192629063        1.60371202592533
C            4.14742168608875       -0.87179804626384        1.01351418228518
C            4.75328147961781        0.15449944737434        0.20745826805531
C            6.03366768636661        0.33434117635293       -0.29105502713296
C            6.32537419548265        1.43894234484029       -1.08155510081334
C            7.74384808950672        1.62099887243294       -1.60564575828291
C            8.11679445651021        0.41158881338505       -2.47627638045303
C            7.90887480442885        2.88596952767701       -2.45358908918533
C            8.70764633675270        1.71966783348152       -0.41343048642016
C            5.29601855338778        2.33832732133233       -1.37183825687962
C            4.00878090194942        2.18242322314497       -0.88802752619322
C            3.73985109130264        1.09459601486948       -0.07561670629944
C            0.16199045469826        0.66296057584316        0.15893552054465
H           -4.56683115984555       -5.29505953378055       -3.90447304326885
H           -3.40268821297529       -4.91725203300055       -2.63071232972549
H           -5.04619208834249       -4.28811103496679       -2.54067757321156
H           -4.65194769628126       -1.81611135696041       -5.34014585114031
H           -5.78668192409931       -2.44506202053570       -4.14776380023907
H           -5.31323735834695       -3.44420534814584       -5.51967139739877
H           -2.36363656439711       -2.87877114358318       -5.60635021863477
H           -3.10323993544020       -4.47406482260912       -5.66079302945630
H           -1.84000836884496       -4.14532202078132       -4.48043457185377
H           -1.29769953406330       -2.04342090291459       -3.80832251134844
H           -0.53105221178729       -0.37448309571975       -2.23499365344731
H           -5.17754711907476       -2.10170066307748       -1.99340774546315
H           -6.37898770931325       -0.85787342534619        0.02809549587701
H           -7.00696924622291        1.19982563660459        4.14459196440387
H           -8.69151566323430        1.34575057566474        3.65825957192879
H           -7.50740379083047        2.48756228605948        3.03254282730849
H           -7.60648779062262       -1.63294811804629        1.77051107643919
H           -8.69503146834173       -1.00922880898019        3.00786936122376
H           -6.97575831146696       -1.20965567734916        3.36056127849457
H           -8.23808421205519        1.90215124959502        0.66903488573724
H           -9.44672441712493        0.84422795762529        1.40382476567216
H           -8.35654767404125        0.21591574648062        0.17100325034768
H           -5.27769267703452        2.04209404924540        2.98257263894061
H           -3.03077166504045        2.16546645417578        2.09676531052496
H           -2.05054778349892        3.22127614700530        0.23997569152688
H           -1.20853256277382        4.85488678373958       -1.62976725541380
H           -3.99972396853856        7.71731495253349       -0.76540398220294
H           -1.36734484294107        6.75837018207038        2.22244390287869
H            2.16920960283461        3.27785807662876        0.94868230544888
H            0.92815007543404       -1.01236401670503        2.13575852891643
H            1.82100551680246       -3.03023113857770        3.14242639349909
H            6.04461636479749       -5.34274385881418        3.23067799561471
H            5.93458725508960       -4.52990308764572        1.67330724772317
H            6.40681538464080       -3.62424323915259        3.12337525196635
H            3.07788244576020       -3.84214086783297        4.82678012515973
H            4.68722679063157       -3.13035389439797        4.92359544916641
H            4.48371834158825       -4.88074270028027        5.04707011905949
H            3.79200322971049       -6.21837072051617        2.96435095594311
H            2.39813077129733       -5.16284921994813        2.74879841231562
H            3.55029251118330       -5.37350950717570        1.43198679693543
H            5.68637817461581       -2.26913933671916        1.45888910055934
H            6.79146608868310       -0.39730954817576       -0.05784306925816
H            8.08988577077891       -0.51187972038744       -1.90451339203155
H            9.12060793971970        0.53441849841616       -2.87778886806747
H            7.42086045016216        0.31792282404597       -3.30784333114029
H            8.94184546721193        2.96470157061555       -2.78732542609957
H            7.27370139231699        2.85337375657347       -3.33605837727331
H            7.67460084424103        3.77800002091311       -1.87670734080154
H            8.43957115770318        2.56495819505804        0.21776107184859
H            8.68052095722955        0.81962661412963        0.19455276543525
H            9.72715074413870        1.86200180940065       -0.76615871950210
H            5.48890471542168        3.19359513681916       -1.99807435399366
H            3.24098538083168        2.89442205939689       -1.15241360007639
H            0.19735794910497       -0.40137620875825       -0.01131662843013
