  65
       -101.59421302
 N        -10.4141869595        0.0327034229        0.0248243633
 C         -9.2667678523        0.0400918299        0.0347546604
 C         -7.8549707449        0.0499071195        0.0467755296
 C         -7.1681396318        0.2766371953        1.2409816142
 C         -5.7886409894        0.2844191549        1.2456645047
 C         -5.0717690567        0.0727298420        0.0689778841
 C         -3.5952200033        0.0882886709        0.0788502421
 C         -2.8914536771       -0.9334612787        0.7322442324
 C         -3.5575796472       -2.0171546852        1.3634274617
 C         -2.8636062186       -2.9893249885        2.0153118338
 C         -1.4572089069       -2.9355380046        2.0818908901
 C         -0.7795740231       -1.9277975131        1.4680280512
 C         -1.4621573381       -0.9078504566        0.7541621881
 C         -0.7714685780        0.1185548577        0.0931845988
 C          0.7062168830        0.1351953294        0.0988556380
 C          1.3867349904        1.1427491781        0.7938976372
 C          2.7651665423        1.2018979100        0.8270383028
 C          3.4754216425        0.2332387591        0.1315561206
 C          2.8042421350       -0.8035329259       -0.5577122604
 C          1.4181292343       -0.8480062735       -0.5724050212
 C          3.8227171757       -1.6465330706       -1.1175246922
 C          3.7894433015       -2.7940555150       -1.8989291937
 C          4.9852555665       -3.3577707934       -2.2954797731
 C          6.2025630923       -2.7839033517       -1.9340906619
 C          6.2610568862       -1.6433639159       -1.1565689058
 C          5.0626813355       -1.0848280890       -0.7352968609
 N          4.8375024713        0.0502687118        0.0180212978
 C          5.8250751099        0.8785336539        0.5719192356
 C          5.7827024678        2.2535289819        0.3608138860
 C          6.7553846101        3.0666142049        0.9124594694
 C          7.7789902187        2.5179265996        1.6670308927
 C          7.8249780846        1.1491868216        1.8739950692
 C          6.8512307619        0.3290195119        1.3346494252
 C         -1.4776178690        1.1295482796       -0.5749953368
 C         -0.8093216428        2.1623282596       -1.2838249121
 C         -1.5014472789        3.1545412407       -1.9066393243
 C         -2.9091891830        3.1793880045       -1.8533672871
 C         -3.5891754868        2.1942771303       -1.2061714752
 C         -2.9070271248        1.1251980686       -0.5673634360
 C         -5.7664433532       -0.1514433516       -1.1188007287
 C         -7.1456845104       -0.1660629868       -1.1361903146
 H         -7.7230731102        0.4448748662        2.1522988822
 H         -5.2520015753        0.4625013177        2.1661646304
 H         -4.6356521216       -2.0619886846        1.3140698314
 H         -3.3857221973       -3.8073823335        2.4890730025
 H         -0.9230621356       -3.7036373788        2.6213374705
 H          0.2981809904       -1.8876720441        1.5170684676
 H          0.8088984348        1.8829459670        1.3284301630
 H          3.2709261718        1.9728581828        1.3886201282
 H          0.8972833314       -1.6312505148       -1.1029873227
 H          2.8453469326       -3.2285271498       -2.1913015125
 H          4.9826538883       -4.2507828041       -2.9023310902
 H          7.1215290316       -3.2383491450       -2.2737851640
 H          7.2088519979       -1.1967140250       -0.8965807300
 H          4.9963022813        2.6741534697       -0.2481658207
 H          6.7174876309        4.1329083201        0.7455874400
 H          8.5393339963        3.1552116519        2.0920078915
 H          8.6189556082        0.7175580557        2.4650848122
 H          6.8714847913       -0.7363976789        1.5104405499
 H          0.2694961986        2.1436829197       -1.3218345401
 H         -0.9784427872        3.9325265145       -2.4428850846
 H         -3.4436451905        3.9853222294       -2.3341781820
 H         -4.6684042899        2.2167347961       -1.1682471362
 H         -5.2122301184       -0.3219511409       -2.0305211368
 H         -7.6832428618       -0.3450665920       -2.0560476951
