  90
       -145.36496265
 C        -11.1606330895       -0.1269324115       -0.7841718655
 C        -10.1469563085        0.7295206266       -1.2092245068
 C         -8.8330200676        0.5379114226       -0.8278088177
 C         -8.5500573803       -0.5365019911        0.0036951830
 C         -9.5685257748       -1.4242013717        0.4216356585
 C        -10.8820821472       -1.2101412343        0.0248681017
 C         -8.9290786830       -2.4294085292        1.2228589519
 C         -9.3941431434       -3.5405093180        1.9140020285
 C         -8.4896737238       -4.3051160571        2.6231811855
 C         -7.1386863511       -3.9661666307        2.6604337757
 C         -6.6518079874       -2.8660498760        1.9812679205
 C         -7.5524249689       -2.1063822235        1.2480256900
 N         -7.3384263410       -0.9619313166        0.5079796532
 C         -6.1009913717       -0.3298518623        0.3133542998
 C         -5.0078644980       -1.0787364079       -0.1376839477
 C         -3.7698387528       -0.5009299184       -0.3351297685
 C         -3.6386979527        0.8568243484       -0.0893056004
 C         -4.7354573126        1.6230148303        0.3589714838
 C         -5.9696849995        1.0279836154        0.5683713851
 C         -4.2626531065        2.9715418597        0.5160910299
 C         -4.8893288711        4.1548058354        0.8809650367
 C         -4.1493767965        5.3206752314        0.8832150730
 C         -2.8103539956        5.3138724167        0.5041077466
 C         -2.1661799718        4.1453101214        0.1392890827
 C         -2.8924021898        2.9638902943        0.1720752426
 N         -2.5158962748        1.6714232252       -0.1715522126
 C         -1.2450001331        1.2473901348       -0.5078778048
 C         -0.0882204829        1.7855783111        0.0703516437
 N          1.1123700943        1.4138220910       -0.3179506063
 C          1.2140536893        0.4824418848       -1.2694611175
 N          2.4813757346        0.1411066756       -1.7007035439
 C          2.8302817451       -0.2835707326       -2.9767077493
 C          2.0749470864       -0.3352481290       -4.1390647504
 C          2.6929103183       -0.7750427326       -5.2958029809
 C          4.0341445705       -1.1460687319       -5.3099298254
 C          4.8030311591       -1.0580951903       -4.1663725275
 C          4.2031030064       -0.6163286199       -2.9954646656
 C          4.7059383224       -0.3679143893       -1.6718449502
 C          5.9599007261       -0.5123736658       -1.0993798719
 C          6.1165514923       -0.1882251490        0.2409197253
 N          7.3696239458       -0.3396313513        0.8539209540
 C          8.0304310578        0.6176127950        1.5957736888
 C          7.6649405689        1.9264647663        1.8774086187
 C          8.5325677830        2.6895185838        2.6347975102
 C          9.7410867248        2.1737568251        3.0986008334
 C         10.1208340307        0.8801672034        2.8023516324
 C          9.2656999875        0.0931632017        2.0421025248
 C          9.3430519700       -1.2500219787        1.5409900721
 C         10.2903097109       -2.2593328627        1.6534030489
 C         10.0380664229       -3.4739672580        1.0480269994
 C          8.8523715302       -3.6938001125        0.3499724159
 C          7.8950904537       -2.7056868888        0.2241258156
 C          8.1530776254       -1.4746297507        0.8106306592
 C          5.0319560845        0.2805381307        0.9914340204
 C          3.7824330226        0.4460305135        0.4281231094
 C          3.6231203950        0.1188729097       -0.9092875639
 C          0.0593032766       -0.1536645992       -1.7429134924
 N         -1.1411980260        0.2361148536       -1.3741563808
 H        -12.1758110490        0.0588386606       -1.1019128524
 H        -10.3936961615        1.5601204621       -1.8540679795
 H         -8.0515933726        1.1967415894       -1.1757284900
 H        -11.6651428555       -1.8821795156        0.3422358011
 H        -10.4432086101       -3.7947850110        1.8977002495
 H         -8.8303410972       -5.1744212096        3.1656136422
 H         -6.4573381104       -4.5751635848        3.2361706861
 H         -5.6063163393       -2.6011152996        2.0299575064
 H         -5.1488852293       -2.1281082487       -0.3468515641
 H         -2.9347252787       -1.0830809049       -0.6879875892
 H         -6.8074353504        1.6004265690        0.9349780503
 H         -5.9354283399        4.1585092646        1.1463780355
 H         -4.6149600951        6.2528060397        1.1645703256
 H         -2.2607210203        6.2429497337        0.4864703118
 H         -1.1369730446        4.1710543922       -0.1833196644
 H         -0.1256910243        2.4941611663        0.8851451282
 H          1.0427261663       -0.0218698737       -4.1603074722
 H          2.1203726709       -0.8248381820       -6.2097570311
 H          4.4784959071       -1.4894797058       -6.2316814890
 H          5.8507897472       -1.3166617052       -4.1786101785
 H          6.7990277746       -0.8602273598       -1.6813503935
 H          6.7388491478        2.3404976246        1.5081778498
 H          8.2698226739        3.7104429244        2.8698011372
 H         10.3902214098        2.8018030175        3.6903779957
 H         11.0639026249        0.4848256986        3.1485380556
 H         11.2021127401       -2.0935778762        2.2071307291
 H         10.7628239664       -4.2711259890        1.1206219840
 H          8.6762868548       -4.6596143934       -0.1003745157
 H          6.9719692547       -2.8915423102       -0.3040996372
 H          5.1824382661        0.5046234074        2.0365189488
 H          2.9548185436        0.8169467262        1.0096754775
 H          0.1006619018       -1.0147860569       -2.3942060589
