88
 energy: -148.538589082431 gnorm: 0.000053730432 xtb: 6.7.1 (edcfbbe)
O            8.77812157766355       -2.51727240736174       -0.82714970178751
C            8.05322190484906       -1.73055778858806       -0.23767544854745
C            8.59154362095203       -0.51592438197346        0.41431260768501
C            8.02109305208924        0.01671198809016        1.57047149259591
C            8.57865156184165        1.13424319427294        2.16446770611113
C            9.70002511799704        1.73357931571133        1.61182695335314
C           10.27978845180906        1.20234556239040        0.46979192774445
C            9.73589207246166        0.07748193589641       -0.11981213349576
C            6.58676453417157       -1.96046618269349       -0.15595781465593
C            6.12382073597497       -3.29857862356783       -0.12826097970868
C            4.79159075143185       -3.58455506037525       -0.08973763497691
C            3.84698500795212       -2.53446702259886       -0.10043425006203
N            2.53541344564721       -2.81197284783277       -0.06959572937100
C            1.68486982202937       -1.80134262316201       -0.09497015263375
C            0.26840061917545       -2.07658345079536       -0.06546990110789
C           -0.17448266594420       -3.40236580092694        0.00996719468008
C           -1.51355188919674       -3.70099563685635        0.04651103411418
C           -2.45051674795802       -2.66340279436135       -0.00217568193230
N           -3.82843602322782       -2.95278419641006        0.04232067027730
C           -4.41280885250440       -3.76602875318430       -0.93450728315125
C           -3.70763138039744       -4.21523996177823       -2.04502963505264
C           -4.31521122416393       -5.02143032530727       -2.99543802608765
C           -5.64125258828975       -5.38181460025959       -2.86132309785501
C           -6.37045794482925       -4.90958878507276       -1.78000830866763
C           -5.76887508949118       -4.10298919196708       -0.83116034660801
O           -6.56675094801145       -3.64455040095233        0.19004846850351
C           -5.98497276512542       -2.82465107253564        1.12796076447152
C           -6.80324877020496       -2.36537141253022        2.14410159231173
C           -6.28680712881874       -1.56516563807822        3.15222786939362
C           -4.94333079132655       -1.24809982098910        3.14422945555595
C           -4.12013635837274       -1.70310410201482        2.12553055512250
C           -4.62793837840701       -2.47599531583502        1.08750686326943
C           -2.02230390458586       -1.34755112330552       -0.08689497353195
C           -0.66501141978029       -1.02046859223472       -0.11091628665823
C           -0.19790508465757        0.35886572587771       -0.16951050483391
C           -1.07814297296175        1.44253963152948       -0.20411438379733
C           -0.61873996265992        2.74987149697286       -0.23180641812960
N           -1.53911826186427        3.81717874760851       -0.24582823950022
C           -1.55329291750240        4.72602833383502       -1.30888052352555
C           -0.75235006761337        4.56531326751108       -2.43347890246512
C           -0.79248049545922        5.48267405853537       -3.47251828669859
C           -1.64238324875681        6.56900887052938       -3.41314138173132
C           -2.47495404272238        6.72461062869193       -2.31454877445066
C           -2.43884645461202        5.81139712648287       -1.27665207961968
O           -3.31801719629361        6.01517033971661       -0.23936603030386
C           -3.30911273263808        5.09977197340930        0.78670791552982
C           -4.20399855726203        5.31497594757534        1.81897619009160
C           -4.23385483495425        4.45944525117406        2.91029531761414
C           -3.34982424943138        3.40076427132298        2.96579785333361
C           -2.45350558716163        3.17894630176860        1.93129764456068
C           -2.43172134999722        4.00705723744729        0.81494992741021
C            0.75584859363255        3.00728031831069       -0.23865051146937
C            1.63870362821306        1.95611739850340       -0.21835310159061
C            1.18520033211421        0.63267593383423       -0.18185370095043
C            2.14396118956338       -0.44736558839935       -0.15332828416725
N            3.43263934232240       -0.16309423848320       -0.18211176017613
C            4.30531432174964       -1.18383177055374       -0.15506996634132
C            5.68890061866460       -0.91895556226225       -0.17880354529229
H            7.15980523355479       -0.45942619686705        2.01493065918237
H            8.13728160510065        1.53869001501177        3.06323804783557
H           10.12668450526394        2.61050578166978        2.07570895124382
H           11.15838948293882        1.66231005921453        0.04261032595439
H           10.17601544068229       -0.35501752547411       -1.00678437032614
H            6.86292019356506       -4.08638276085804       -0.13449647866793
H            4.42777107335055       -4.59993495611785       -0.05905143389449
H            0.57068138476879       -4.18080526223851        0.05179943005374
H           -1.85060505126104       -4.72364400289493        0.12146639686335
H           -2.67582881835831       -3.92843852319057       -2.17267140420269
H           -3.73984892492209       -5.36083521080837       -3.84304389341302
H           -6.11770723623621       -6.01385894011410       -3.59403499684370
H           -7.41409671711203       -5.15235223401290       -1.65555407853650
H           -7.84254017348687       -2.65402151131540        2.13054260922296
H           -6.93318107262356       -1.20968040615475        3.93901917613251
H           -4.51987009039980       -0.64835689168202        3.93476821348452
H           -3.06912166941909       -1.46307168194899        2.14761912150113
H           -2.77516823451479       -0.57797989714541       -0.13962433483883
H           -2.14454965177785        1.28594710417414       -0.21437150333897
H           -0.09585182622824        3.71242747448490       -2.50264299497361
H           -0.15424624368481        5.33485901034056       -4.33013144919172
H           -1.67471781387769        7.28842140546998       -4.21609811943495
H           -3.16708005661546        7.54907767344035       -2.24474472306207
H           -4.86452202068111        6.16517798849751        1.75145774217555
H           -4.93664407277140        4.63421493282675        3.70951886898453
H           -3.34303761983224        2.74005254223519        3.81873469469134
H           -1.75642995489268        2.35917234022592        2.00118884678174
H            1.10932120254599        4.02705639787537       -0.25113859814596
H            2.70400006153307        2.12403826997353       -0.21755589063084
H            6.01091853186849        0.10936222050893       -0.23991502447810
