88
 energy: -148.498973042092 gnorm: 0.000061973145 xtb: 6.7.1 (edcfbbe)
O            8.75505923423976       -2.75825165645621       -1.14441580254645
C            8.01130532406628       -1.89522398990890       -0.67213521770856
C            8.57498606257395       -0.61172217215344       -0.17845827836239
C            8.13881302682390       -0.03003472637112        1.01061343768881
C            8.72273959918080        1.13760774030612        1.46743842829886
C            9.74070312139119        1.73909971426125        0.74422283708283
C           10.18907596231115        1.15913538132489       -0.43184098424285
C            9.61756723831982       -0.01523557707755       -0.88469722232811
C            6.56434798550373       -2.09360988174364       -0.57235383054695
C            6.06638924022123       -3.40739608204164       -0.62482257567030
C            4.72502527090924       -3.66798074387484       -0.53589730015468
C            3.79779732564051       -2.61720410593085       -0.41341315778039
N            2.49409487254070       -2.84770805401746       -0.33082535276278
C            1.63234499144199       -1.83075969437029       -0.22694832785233
C            0.23108312550642       -2.08342939951475       -0.12511694298251
C           -0.23617876229249       -3.40973050568439       -0.14724638091453
C           -1.57225508841244       -3.69307888374115       -0.06392979309692
C           -2.49020612258837       -2.63990082258076        0.06603470945650
N           -3.87748642149971       -2.91756865028753        0.15178683187513
C           -4.74398374980508       -2.50645386714430       -0.85648786579847
C           -4.30110598192893       -1.83882374986800       -1.99573370953284
C           -5.19561990372369       -1.44009471496101       -2.97396803798354
C           -6.54698151291791       -1.70657473149714       -2.84061096176179
C           -7.00348407129853       -2.39216903699806       -1.72646014510529
C           -6.11432286404762       -2.79517808308584       -0.74444399177979
O           -6.63096214635708       -3.49023669898074        0.31723207517427
C           -5.76477583873941       -3.88737896827831        1.30152091014013
C           -6.30203881061428       -4.57447014163459        2.37672874120688
C           -5.48608167721094       -4.98331545134946        3.41942650982379
C           -4.13447171710468       -4.68767829182394        3.38793236409028
C           -3.59020728813065       -4.00173924664160        2.31572296146006
C           -4.38951712207282       -3.60659596962422        1.24608458127199
C           -2.05168432014536       -1.33251722098308        0.10097623192658
C           -0.69222540330123       -1.01464976082581       -0.00667198015201
C           -0.20750188866694        0.34529341959237       -0.01515674026106
C           -1.06246137684304        1.45282907798785        0.06565620178167
C           -0.57603003593280        2.74258464103136        0.01501905131660
N           -1.47670137943412        3.83536466529141        0.05887106418181
C           -2.38798493459758        4.04293787627142       -0.97336281479207
C           -2.46661053033847        3.20422199777476       -2.08231358634904
C           -3.39058026476236        3.44224484828399       -3.08539773755388
C           -4.24693846753305        4.52637784603453       -3.00873839409903
C           -4.16613433391689        5.38708876200849       -1.92601191407458
C           -3.24425020600665        5.15527922613563       -0.91915838818347
O           -3.20317541799011        6.06161682832001        0.10760619066169
C           -2.30672632580802        5.83858475439392        1.11928628878264
C           -2.29113028105436        6.74910460568998        2.16214171575658
C           -1.42623124774258        6.56988922326005        3.22986430687428
C           -0.59024496269879        5.46744371839797        3.25648061985206
C           -0.59994998191337        4.55341495229240        2.21673102489252
C           -1.44184748158339        4.73206076339576        1.12216620482384
C            0.80174555512331        2.97751387581063       -0.09434447907419
C            1.65891049417131        1.91052843375584       -0.15435148827201
C            1.18125804778789        0.59146525374613       -0.12633646881695
C            2.11547124275442       -0.49464833723331       -0.22120514222109
N            3.41417913023753       -0.24887258517953       -0.30627737296164
C            4.29365374603241       -1.26233620118796       -0.39307314012310
C            5.66163060673573       -1.03087808398658       -0.47157786157615
H            7.35855094700854       -0.50845848338373        1.58485330056116
H            8.38284215495500        1.57900562056673        2.39296344509801
H           10.18973042442827        2.65420752783022        1.10142281747002
H           10.98851355759917        1.61933228989063       -0.99393389454507
H            9.96234903933228       -0.48604973629042       -1.79445714248301
H            6.78039317392408       -4.21292227608943       -0.72186520327643
H            4.34759437249795       -4.67904206451152       -0.55544112865112
H            0.49643041311645       -4.19566437048378       -0.24561424497796
H           -1.92846355824582       -4.71134810721885       -0.10054508185349
H           -3.24864006486973       -1.63913522887025       -2.11775551037760
H           -4.82707881688621       -0.92182511435448       -3.84536358275332
H           -7.24551845901653       -1.39423662238933       -3.60038868420333
H           -8.04744208896578       -2.63085160939085       -1.59924556614412
H           -7.36174612637105       -4.77461928171055        2.37788718838449
H           -5.91051155534330       -5.52075137048182        4.25240075865691
H           -3.49317923256272       -4.98731767381457        4.20220858635461
H           -2.53818517941732       -3.76554233345316        2.30727245746908
H           -2.78991826702267       -0.55452808773176        0.21188054613940
H           -2.12761947515578        1.31711136448592        0.16240863672507
H           -1.79363495046661        2.36579406293909       -2.16279059861091
H           -3.43267169582454        2.77465795616003       -3.93180427927041
H           -4.96899055642831        4.71188889811879       -3.78782393617857
H           -4.80601302529558        6.25119504057397       -1.84285499244591
H           -2.96711078548788        7.58823873948115        2.11834145934205
H           -1.41729789679158        7.28449363509223        4.03741517878616
H            0.07535480758440        5.30940827080155        4.09077017431293
H            0.04653847023116        3.69120035164308        2.25351443292330
H            1.17096928421014        3.99070065878179       -0.13858946698385
H            2.72467608198354        2.05467533000010       -0.24222435913073
H            6.00587397945919       -0.00821591888802       -0.47898287675091
