  70
  -106.980876208400       0.228813018642809      !
 C         -1.7792987456       -0.0443171507        2.3964057617
 C         -0.9678370435       -0.0241529257        1.1391622622
 C          0.4106351181       -0.0252499559        1.1576044024
 C          1.1505785088        0.0003533429       -0.0303754990
 N          2.5777396504       -0.0009005252        0.0409163869
 C          3.2055457422       -1.2276776822       -0.0239930131
 C          2.4344290806       -2.3986600422       -0.1569748638
 C          3.0248050326       -3.6360798421       -0.2753836460
 C          4.4115077960       -3.7703812603       -0.2722668769
 C          5.1847986881       -2.6350390321       -0.1205875930
 C          4.5967794926       -1.3916309470        0.0063210208
 S          5.6707444977       -0.0056165912        0.3057413148
 O          6.7242813656        0.0232918848       -0.6815853617
 O          6.0953849120       -0.0446653630        1.6884760771
 C          4.5943590937        1.3930254526        0.0854667420
 C          5.1800751307        2.6428839411        0.0282799045
 C          4.4046830667        3.7835382116       -0.0555518944
 C          3.0180311496        3.6473487706       -0.0617226254
 C          2.4299897926        2.4040368492       -0.0140711646
 C          3.2032547256        1.2287961726        0.0484619426
 C          0.5088645610        0.0312450835       -1.2789036458
 C          1.3191603455        0.0648243228       -2.5364839269
 C         -0.8692345881        0.0301634544       -1.3010407119
 C         -1.6087789181        0.0013261277       -0.1099265238
 N         -3.0304739943       -0.0013555528       -0.1671466381
 C         -3.6780158313       -1.2010390292       -0.1193962454
 C         -2.9369451571       -2.4080730837       -0.1772050036
 C         -3.5599229621       -3.6186533319       -0.0857663894
 C         -4.9548206928       -3.6789957370        0.0828925991
 C         -5.6895877253       -2.5015548771        0.1367331946
 C         -5.0989785348       -1.2588509819        0.0310940152
 C         -5.9316533669       -0.0024744541        0.0881007441
 C         -6.6733359205        0.0376633960        1.4401776843
 C         -6.9531484472       -0.0423434051       -1.0675604208
 C         -5.1056894569        1.2530796922       -0.0423804094
 C         -5.7055335085        2.4962943172       -0.0141220491
 C         -4.9774216046        3.6735784200       -0.1184454138
 C         -3.5789769212        3.6142424375       -0.2485355909
 C         -2.9477450415        2.4039610488       -0.2662780724
 C         -3.6833714812        1.1971765419       -0.1727518496
 H         -1.1327274163       -0.0448922946        3.2691144164
 H         -2.4115824375       -0.9325658156        2.4291541998
 H         -2.4302136182        0.8297501765        2.4438416855
 H          0.9422741249       -0.0442854744        2.0966995757
 H          1.3592298612       -2.3206878213       -0.1660877336
 H          2.4001976725       -4.5108631875       -0.3758154263
 H          4.8708874567       -4.7397615460       -0.3756925417
 H          6.2621651782       -2.6811143842       -0.0954825425
 H          6.2574787431        2.6892760743        0.0538365161
 H          4.8620299966        4.7582178876       -0.1040798809
 H          2.3918192341        4.5254620284       -0.1083413435
 H          1.3549048242        2.3248512964       -0.0250383306
 H          0.6736149281        0.0958797074       -3.4100132365
 H          1.9673325073        0.9415077204       -2.5476197279
 H          1.9564294857       -0.8174142867       -2.6023329200
 H         -1.4006510064        0.0520612664       -2.2407798743
 H         -1.8671181012       -2.3524001650       -0.3032467973
 H         -2.9856536527       -4.5301766286       -0.1396462202
 H         -5.4503976372       -4.6322156399        0.1666970512
 H         -6.7596021668       -2.5745534818        0.2614461315
 H         -7.3039375403        0.9192783548        1.5077701168
 H         -7.2996708359       -0.8411959766        1.5625154288
 H         -5.9542715089        0.0645617173        2.2567273225
 H         -7.5913304834       -0.9171682422       -0.9862985039
 H         -7.5821376955        0.8428124668       -1.0566449257
 H         -6.4309690093       -0.0831468098       -2.0212080064
 H         -6.7776704439        2.5683639865        0.0907293951
 H         -5.4802757834        4.6264510190       -0.0963496676
 H         -3.0076555027        4.5255824241       -0.3306123624
 H         -1.8746261761        2.3505338456       -0.3599991580
  70
  -106.980862899700       0.225613184501887      !
 C         -1.8277807461       -0.1076288095        2.6445445318
 C         -0.9750561408       -0.0535069442        1.4144827468
 C          0.4024213144       -0.0505160747        1.4816475355
 C          1.1835958806       -0.0001611599        0.3173521283
 N          2.6056846320        0.0029111747        0.3957810357
 C          3.2396117656       -1.2197921893        0.4214426691
 C          2.5402698121       -2.3743711338        0.8213595082
 C          3.1674404590       -3.5955461729        0.8942378407
 C          4.5187340587       -3.7306362381        0.5585812155
 C          5.2103991259       -2.6158501571        0.1217657012
 C          4.5903995811       -1.3854441860        0.0568485867
 S          5.4434229988       -0.0267331703       -0.7108614141
 O          5.1976545683       -0.1118109592       -2.1369891440
 O          6.8264066702        0.0065239621       -0.3008136300
 C          4.5684380123        1.3882932545       -0.0886706085
 C          5.1621034611        2.6317576326       -0.1444314038
 C          4.4539621325        3.7670318822        0.2048506471
 C          3.1137512915        3.6346520339        0.5902429672
 C          2.5129399723        2.4002902366        0.6379215240
 C          3.2259745664        1.2293663004        0.3131704342
 C          0.5835913354        0.0546936791       -0.9497302682
 C          1.4354414202        0.1271948483       -2.1757771504
 C         -0.7929500327        0.0511601365       -1.0172953403
 C         -1.5723379593       -0.0030104404        0.1467453904
 N         -2.9911592770       -0.0009321534        0.0248410077
 C         -3.6425953068       -1.1992014370       -0.0826694675
 C         -2.9023900343       -2.4028504310       -0.0582325490
 C         -3.5301459803       -3.6149601556       -0.1532230940
 C         -4.9223063640       -3.6717653009       -0.2792032367
 C         -5.6551405691       -2.4932685828       -0.3085932565
 C         -5.0561506518       -1.2516735741       -0.2106771413
 C         -5.8916322512        0.0060091348       -0.2560993034
 C         -6.9351125615       -0.0475579802        0.8771758932
 C         -6.6033377231        0.0668171400       -1.6234398187
 C         -5.0612646354        1.2577752606       -0.0968763169
 C         -5.6653496670        2.5006914085       -0.0812390161
 C         -4.9372464614        3.6747666937        0.0536198891
 C         -3.5446094482        3.6125657898        0.1716912517
 C         -2.9119717719        2.3993753400        0.1560350590
 C         -3.6473441734        1.1996874716        0.0246341965
 H         -2.4734092364        0.7693299778        2.7008686905
 H         -1.2101562637       -0.1425123728        3.5376433822
 H         -2.4670802990       -0.9909046830        2.6275859439
 H          0.8998260208       -0.0836090441        2.4394370111
 H          1.4974738395       -2.2929235528        1.0834417744
 H          2.6075611054       -4.4603193723        1.2162506547
 H          5.0053717268       -4.6899829909        0.6231449573
 H          6.2446425471       -2.6717432405       -0.1802385403
 H          6.1899855975        2.6823211780       -0.4684253579
 H          4.9195762716        4.7382918132        0.1714647665
 H          2.5454650858        4.5127944766        0.8563754043
 H          1.4811123440        2.3162884928        0.9410096183
 H          0.8285925249        0.0501104105       -3.0736452633
 H          1.9802498324        1.0713744171       -2.2021683000
 H          2.1792888471       -0.6686252161       -2.1812092776
 H         -1.2918974713        0.0908697569       -1.9738016827
 H         -1.8291290177       -2.3512999642        0.0338849282
 H         -2.9519987204       -4.5256803724       -0.1326535447
 H         -5.4237141848       -4.6230381523       -0.3549474522
 H         -6.7274747375       -2.5613173988       -0.4128079762
 H         -7.5715411288        0.8321568061        0.8590160622
 H         -7.5672677395       -0.9251337328        0.7797054753
 H         -6.4326889165       -0.0898607474        1.8416090146
 H         -7.2272385357       -0.8099461253       -1.7716140527
 H         -7.2302796379        0.9512633562       -1.6917043926
 H         -5.8662453290        0.1043864964       -2.4233392066
 H         -6.7379969485        2.5734597464       -0.1781557985
 H         -5.4425402567        4.6268874902        0.0648703345
 H         -2.9699444002        4.5201488854        0.2730262094
 H         -1.8383873715        2.3442314101        0.2417360721
  70
  -106.980556880600       0.163202886106111      !
 C         -1.8820376875        0.0006122983        2.4897594931
 C         -1.0055094572       -0.0003690067        1.2757987442
 C          0.3697790102        0.0007387922        1.3683992120
 C          1.1717281281       -0.0000582444        0.2180359411
 N          2.5926158353       -0.0002170534        0.3285288442
 C          3.2200888801       -1.2264526676        0.3091741165
 C          2.4891153049       -2.3955266569        0.5949755073
 C          3.0975898555       -3.6281082583        0.6143261800
 C          4.4624108380       -3.7592687069        0.3409640549
 C          5.1900917250       -2.6260671777        0.0285079205
 C          4.5869202994       -1.3853050670        0.0142659753
 S          5.5101790625        0.0169855659       -0.5696833857
 O          5.3954700378        0.0510704553       -2.0139509330
 O          6.8503793110        0.0040798490       -0.0350959928
 C          4.5889163450        1.3926232615        0.0780444840
 C          5.1963323301        2.6295297396        0.1499938296
 C          4.4706157680        3.7504701244        0.5073410344
 C          3.1032965622        3.6129055362        0.7630614302
 C          2.4907182133        2.3842270677        0.6868624970
 C          3.2204399328        1.2256850421        0.3597311901
 C          0.5964158173       -0.0034153204       -1.0613945783
 C          1.4754280070       -0.0079514339       -2.2706406319
 C         -0.7788923434       -0.0042165747       -1.1558180509
 C         -1.5794766358       -0.0025706250       -0.0046558083
 N         -2.9968188361       -0.0040059456       -0.1332514756
 C         -3.6506945797       -1.2046009633       -0.1327125221
 C         -2.9090390860       -2.4081335873       -0.1540663595
 C         -3.5390167503       -3.6213763902       -0.1258193283
 C         -4.9378526827       -3.6809839907       -0.0635297771
 C         -5.6726070616       -2.5039454943       -0.0421373832
 C         -5.0719159641       -1.2601772489       -0.0819609882
 C         -5.9083549941       -0.0035753301       -0.0524877094
 C         -6.7193191333        0.0154863710        1.2593204612
 C         -6.8653251489       -0.0221368615       -1.2615653929
 C         -5.0723391539        1.2521204617       -0.1168250403
 C         -5.6737679659        2.4962797005       -0.1104628540
 C         -4.9395868908        3.6727593812       -0.1589731918
 C         -3.5405784064        3.6123985237       -0.2125273460
 C         -2.9098859069        2.3990964914       -0.2081437268
 C         -3.6511086814        1.1961087599       -0.1621893216
 H         -2.5213006475       -0.8830743259        2.4997110784
 H         -2.5282280784        0.8792836798        2.4934117861
 H         -1.2822192864        0.0061263845        3.3954057440
 H          0.8500076015        0.0016913190        2.3354051751
 H          1.4357600849       -2.3153097404        0.8118271259
 H          2.5118408902       -4.5043763199        0.8469783813
 H          4.9341323466       -4.7279468548        0.3612697181
 H          6.2405480044       -2.6748033721       -0.2121676358
 H          6.2480841262        2.6847358154       -0.0836027403
 H          4.9453124060        4.7157200532        0.5728093608
 H          2.5179654417        4.4810160271        1.0253208823
 H          1.4349636082        2.2999994011        0.8897307774
 H          2.1111369328       -0.8933694453       -2.2772066054
 H          0.8825227932        0.0050378364       -3.1809005401
 H          2.1363300738        0.8586732025       -2.2676991784
 H         -1.2598687225       -0.0064990191       -2.1223594030
 H         -1.8328822471       -2.3537081374       -0.2009713475
 H         -2.9610060626       -4.5320098742       -0.1499482753
 H         -5.4402982297       -4.6341179017       -0.0337896335
 H         -6.7487906742       -2.5747125626        0.0054567307
 H         -7.3498574674       -0.8655577743        1.3354375686
 H         -6.0439212571        0.0303617092        2.1127000336
 H         -7.3535939977        0.8958169940        1.3075116968
 H         -7.5111924741       -0.8945571280       -1.2285351482
 H         -7.4909915718        0.8654041827       -1.2724704987
 H         -6.2924961190       -0.0517057361       -2.1862529367
 H         -6.7501425627        2.5676752430       -0.0675014673
 H         -5.4427208844        4.6260038653       -0.1553788229
 H         -2.9626598998        4.5224127340       -0.2553742991
 H         -1.8334641750        2.3444253750       -0.2472354677
  70
  -106.980556071200       0.163063162204477      !
 C         -1.7862785829       -0.0726170515        2.3713682814
 C         -0.9716225234       -0.0424856375        1.1164367162
 C          0.4066838846       -0.0436078345        1.1389015601
 C          1.1507840695       -0.0045227657       -0.0458073151
 N          2.5774788618       -0.0053554137        0.0319506783
 C          3.2102197256       -1.2258437365       -0.0858490502
 C          2.4456198942       -2.3910464140       -0.2857970927
 C          3.0434609522       -3.6160962569       -0.4767537443
 C          4.4308887855       -3.7418288436       -0.4810608826
 C          5.1975584328       -2.6151838995       -0.2522480850
 C          4.6019229118       -1.3849813873       -0.0510320410
 S          5.6560133783       -0.0178524844        0.3733653396
 O          6.7678898829        0.0567085442       -0.5442163865
 O          5.9942618912       -0.1223790805        1.7763412171
 C          4.5900737646        1.3888144333        0.1558537905
 C          5.1760107679        2.6397580974        0.1398220799
 C          4.4010786139        3.7814111637        0.0637345990
 C          3.0156363133        3.6448718026        0.0227932003
 C          2.4275010312        2.4003171228        0.0293745268
 C          3.2007394478        1.2249776865        0.0833956810
 C          0.5129027966        0.0418282975       -1.2962839163
 C          1.3262765875        0.0948991302       -2.5511424883
 C         -0.8649610782        0.0388974178       -1.3227663942
 C         -1.6090371464       -0.0039205744       -0.1346996282
 N         -3.0299985575       -0.0066395071       -0.1941493254
 C         -3.6779642302       -1.2017334780       -0.0888679225
 C         -2.9398864295       -2.4122417378       -0.1227905300
 C         -3.5598404857       -3.6163168154        0.0407388603
 C         -4.9485942698       -3.6667178057        0.2604054602
 C         -5.6816933067       -2.4867588568        0.2835602993
 C         -5.0951705376       -1.2513253088        0.1024322927
 C         -5.9236925213        0.0084850832        0.1292049823
 C         -6.6097383234        0.1169833902        1.5066912130
 C         -6.9911923913       -0.0843600254       -0.9807011823
 C         -5.1019368761        1.2540701190       -0.0927184326
 C         -5.7025887202        2.4976101085       -0.1162225417
 C         -4.9784639849        3.6673331358       -0.2958725304
 C         -3.5821545873        3.6018950022       -0.4437798745
 C         -2.9498308124        2.3921339058       -0.4083059277
 C         -3.6823285722        1.1918262483       -0.2467366593
 H         -2.4113721675       -0.9660483288        2.4005488783
 H         -2.4443760196        0.7960635805        2.4191522497
 H         -1.1419390351       -0.0701174766        3.2457239745
 H          0.9353246726       -0.0717455593        2.0794640484
 H          1.3699914717       -2.3184820252       -0.2902206537
 H          2.4242146060       -4.4870381232       -0.6292217465
 H          4.8959061142       -4.7001756162       -0.6451058574
 H          6.2749431550       -2.6577126084       -0.2212593817
 H          6.2525776998        2.6861281427        0.1902998701
 H          4.8586185548        4.7571323763        0.0469897045
 H          2.3897570363        4.5235003600       -0.0196298694
 H          1.3531024999        2.3208958175       -0.0083166886
 H          1.9760549615        0.9701271034       -2.5452684962
 H          1.9613723852       -0.7874717126       -2.6308027683
 H          0.6824574705        0.1426203387       -3.4251549251
 H         -1.3933107790        0.0705227049       -2.2640290301
 H         -1.8752720130       -2.3633605355       -0.2897419355
 H         -2.9888764719       -4.5309208758        0.0043201755
 H         -5.4409714870       -4.6144077266        0.4039731018
 H         -6.7471998615       -2.5528267193        0.4451534282
 H         -7.2344580829        1.0040615111        1.5567309869
 H         -7.2325883060       -0.7524149350        1.6958570593
 H         -5.8581959563        0.1798728516        2.2913870691
 H         -6.5083569708       -0.1580827112       -1.9529161359
 H         -7.6171850054       -0.9603644360       -0.8393802639
 H         -7.6282311234        0.7950622365       -0.9775688946
 H         -6.7724960847        2.5745981475        0.0063860351
 H         -5.4819151067        4.6199832406       -0.3157253584
 H         -3.0127792918        4.5078890855       -0.5801613382
 H         -1.8778485204        2.3358972369       -0.5122163026
  70
  -106.980228430800       0.115287642291394      !
 C         -1.8827657384        0.0306643524        2.4804128156
 C         -1.0061896083        0.0011985787        1.2667997576
 C          0.3692838443        0.0006943886        1.3609976698
 C          1.1738979496       -0.0195202316        0.2126033642
 N          2.5939926649       -0.0172190999        0.3254603760
 C          3.2275677837       -1.2351479258        0.1952646176
 C          2.5084355411       -2.4246287808        0.4135517428
 C          3.1216298426       -3.6524022384        0.3231193356
 C          4.4791309938       -3.7546264386        0.0055186944
 C          5.1963205764       -2.5978058432       -0.2347652315
 C          4.5866237608       -1.3630195700       -0.1421390414
 S          5.4802758695        0.0963539743       -0.6155799309
 O          5.2781449269        0.3033634128       -2.0355188016
 O          6.8482588469        0.0301734984       -0.1629625324
 C          4.5922200406        1.3827095204        0.2333841953
 C          5.2175579274        2.5917859925        0.4621580585
 C          4.5039685654        3.6684658659        0.9543165583
 C          3.1337203436        3.5217736115        1.1723356698
 C          2.5043374768        2.3189646795        0.9428636985
 C          3.2239262434        1.1983460497        0.4920787870
 C          0.6003296745       -0.0504462247       -1.0668811462
 C          1.4753680043       -0.0997358061       -2.2782863242
 C         -0.7754326615       -0.0498017504       -1.1630192135
 C         -1.5782694672       -0.0225721948       -0.0137537314
 N         -2.9953369543       -0.0215795955       -0.1444173259
 C         -3.6584534830       -1.2100711127       -0.0310466359
 C         -2.9271266805       -2.4203070489        0.0395079359
 C         -3.5654669142       -3.6172205932        0.2010788169
 C         -4.9642970740       -3.6557507747        0.3092103177
 C         -5.6897109885       -2.4745141254        0.2282155171
 C         -5.0816302010       -1.2477302212        0.0496916546
 C         -5.9058630999        0.0131188660       -0.0422588283
 C         -6.7030251604        0.1782790931        1.2680196815
 C         -6.8767712044       -0.1237745908       -1.2327325947
 C         -5.0608005182        1.2475422341       -0.2443311464
 C         -5.6525413885        2.4903903467       -0.3640948143
 C         -4.9099728895        3.6509048460       -0.5282885017
 C         -3.5098349181        3.5763388326       -0.5639884228
 C         -2.8880941084        2.3655948136       -0.4370191156
 C         -3.6380670838        1.1763319955       -0.2847618208
 H         -2.5077063224       -0.8622163743        2.5225391584
 H         -2.5430438877        0.8983654313        2.4529538947
 H         -1.2830810733        0.0779762715        3.3849703268
 H          0.8466812574        0.0127310344        2.3293634331
 H          1.4617487859       -2.3645141515        0.6675547809
 H          2.5457192904       -4.5471215689        0.5046698150
 H          4.9539256438       -4.7198222103       -0.0610328659
 H          6.2413342079       -2.6221701410       -0.5015634159
 H          6.2708825701        2.6605296274        0.2394071566
 H          4.9918236316        4.6103099587        1.1457162503
 H          2.5548975165        4.3605181692        1.5283348797
 H          1.4441247641        2.2312524375        1.1179797716
 H          0.8940703860        0.0611607843       -3.1820723487
 H          2.2630791360        0.6502663370       -2.2237670277
 H          1.9648807112       -1.0717941726       -2.3482272128
 H         -1.2543294163       -0.0710149506       -2.1303841318
 H         -1.8525174643       -2.3812106677       -0.0453373761
 H         -2.9968502375       -4.5329415815        0.2470040986
 H         -5.4726330986       -4.5958856114        0.4479664070
 H         -6.7651101493       -2.5302699954        0.3057807980
 H         -6.0185176532        0.2785593789        2.1082457675
 H         -7.3304305856        1.0639293729        1.2279765083
 H         -7.3388239067       -0.6845593181        1.4436235290
 H         -7.5235034892       -0.9867838487       -1.1045170756
 H         -7.5009858800        0.7599688939       -1.3257229939
 H         -6.3145218761       -0.2480832732       -2.1560264196
 H         -6.7283932993        2.5736999823       -0.3299987673
 H         -5.4058989565        4.6031515475       -0.6231798495
 H         -2.9253791210        4.4743544424       -0.6894226502
 H         -1.8117925969        2.3020179528       -0.4594162427
  70
  -106.979876645800       7.945359737928427E-002 !
 C         -1.8624176011       -0.0233155319        2.5400160237
 C         -0.9959970121        0.0154832499        1.3189930773
 C          0.3800856773        0.0223597095        1.4058861744
 C          1.1806038948        0.0389754117        0.2533769490
 N          2.5999706996        0.0383411813        0.3579666003
 C          3.2331663564       -1.1647826068        0.5925403759
 C          2.5277789172       -2.2545834329        1.1321785120
 C          3.1670847205       -3.4370704052        1.4301057659
 C          4.5330046131       -3.5950117936        1.1924602700
 C          5.2300704168       -2.5545947700        0.6072611514
 C          4.5955753444       -1.3650260545        0.3119312360
 S          5.4509387275       -0.1473275784       -0.6636267858
 O          5.1904345056       -0.4610439058       -2.0547061696
 O          6.8370710913       -0.0556890801       -0.2749917780
 C          4.5799410044        1.3454130807       -0.2626043528
 C          5.1836982358        2.5700202677       -0.4625596995
 C          4.4752298504        3.7415881811       -0.2730334864
 C          3.1307776306        3.6637004176        0.1081766787
 C          2.5228967966        2.4463159019        0.3036296673
 C          3.2325164857        1.2428985660        0.1328100955
 C          0.5997056629        0.0638018771       -1.0235702756
 C          1.4637469667        0.1109447084       -2.2430064063
 C         -0.7761510013        0.0588471874       -1.1117138973
 C         -1.5749164857        0.0339267799        0.0415001886
 N         -2.9909656883        0.0271314798       -0.0914256467
 C         -3.6217574300       -1.1593973766       -0.3486317232
 C         -2.8606668515       -2.3319115896       -0.5571393867
 C         -3.4702536266       -3.5278319711       -0.8202600127
 C         -4.8680652235       -3.6038868583       -0.8691572914
 C         -5.6226754292       -2.4629397772       -0.6384265238
 C         -5.0423441340       -1.2358166444       -0.3775684914
 C         -5.9044616930       -0.0277735942       -0.0998041449
 C         -6.7564347407       -0.3160650620        1.1529844998
 C         -6.8227400199        0.2172250632       -1.3142314021
 C         -5.0923771376        1.2211967283        0.1421929356
 C         -5.7157383378        2.4237859092        0.4103808620
 C         -5.0025108371        3.5979062293        0.6147742284
 C         -3.6028999718        3.5789134889        0.5319335221
 C         -2.9506002409        2.4044449720        0.2817920547
 C         -3.6690141895        1.1980389068        0.1008436575
 H         -2.4700166455        0.8795365979        2.6092089667
 H         -1.2550337382       -0.1019754545        3.4372928491
 H         -2.5388750716       -0.8777257186        2.5000007423
 H          0.8614833380        0.0197333566        2.3723644000
 H          1.4706635616       -2.1606073593        1.3206571846
 H          2.5996531574       -4.2507784562        1.8554107261
 H          5.0288102376       -4.5197663434        1.4386596502
 H          6.2771310368       -2.6377577795        0.3612681376
 H          6.2173605748        2.5753056756       -0.7712485830
 H          4.9454477556        4.6992464633       -0.4245780625
 H          2.5633988049        4.5700971863        0.2548370835
 H          1.4878711219        2.4038541684        0.6051456776
 H          0.8824016470       -0.1030737767       -3.1357474330
 H          1.9083046206        1.1013326234       -2.3485171294
 H          2.2843193592       -0.6014227717       -2.1732891636
 H         -1.2600613885        0.0752345139       -2.0766873892
 H         -1.7852142980       -2.2706227758       -0.5109794319
 H         -2.8752643684       -4.4123040963       -0.9865291595
 H         -5.3548506777       -4.5432413044       -1.0754968285
 H         -6.6984938527       -2.5484085675       -0.6648946752
 H         -7.4120802794        0.5212558054        1.3738501669
 H         -7.3687247555       -1.2012407222        1.0071650971
 H         -6.1089480266       -0.4827322167        2.0118048775
 H         -7.4457132497       -0.6507107168       -1.5090314413
 H         -7.4711161369        1.0708613526       -1.1401171743
 H         -6.2209079194        0.4159489995       -2.1988019693
 H         -6.7932782851        2.4663413171        0.4612949239
 H         -5.5224801899        4.5185572801        0.8234212608
 H         -3.0430660626        4.4916825404        0.6648073094
 H         -1.8746041328        2.3817971016        0.2102596451
  70
  -106.978767408600       2.456650887403757E-002 !
 C         -1.6691090778       -0.0009093838        2.4531655663
 C         -0.9251569385       -0.0159006238        1.1534842013
 C          0.4509072751       -0.0275685711        1.1200541633
 C          1.1577255460        0.0000404056       -0.0934150638
 N          2.5820346707       -0.0046746884       -0.0516110310
 C          3.2272256719       -1.1656831947       -0.4282722004
 C          2.4740001030       -2.2856466054       -0.8303961046
 C          3.0814442946       -3.4322796884       -1.2889391914
 C          4.4699566997       -3.5276848541       -1.3575268951
 C          5.2266167990       -2.4634685434       -0.9055649917
 C          4.6213677412       -1.3103111354       -0.4445107989
 S          5.6831635778       -0.0748314948        0.2693593009
 O          6.6787619292        0.3373812356       -0.6928778891
 O          6.1870945915       -0.5792544883        1.5276579314
 C          4.5757851460        1.2812457988        0.5835530037
 C          5.1410218459        2.4598700270        1.0300348946
 C          4.3588789057        3.5732269606        1.2715958308
 C          2.9897493130        3.4894562666        1.0257815601
 C          2.4225685161        2.3186684354        0.5786359952
 C          3.1965696001        1.1606239161        0.3659372068
 C          0.4709311748        0.0744757708       -1.3170676624
 C          1.2202503249        0.1641561365       -2.6098472935
 C         -0.9064244286        0.0703140155       -1.2885001326
 C         -1.6137302083        0.0133352986       -0.0738026184
 N         -3.0307324693        0.0007762214       -0.1007038959
 C         -3.6777224808       -1.1368627511        0.2923312493
 C         -2.9376752383       -2.3201107939        0.5481408505
 C         -3.5457472543       -3.4316200959        1.0556555248
 C         -4.9243395926       -3.4154730949        1.3258135915
 C         -5.6697234849       -2.2864251452        1.0058225430
 C         -5.0943840060       -1.1524905714        0.4713114833
 C         -5.9446492488        0.0213047392        0.0554232739
 C         -6.7311572083        0.5372967246        1.2777483847
 C         -6.9256972116       -0.4642457970       -1.0313931758
 C         -5.1256913105        1.1658690375       -0.4898477402
 C         -5.7490119418        2.3095472712       -0.9517122201
 C         -5.0359420033        3.4162427278       -1.3898352152
 C         -3.6360590687        3.4039511301       -1.3204708460
 C         -2.9843908122        2.2901534727       -0.8683232742
 C         -3.7008655706        1.1302884511       -0.4903596506
 H         -2.4502404311        0.7588009345        2.4399113162
 H         -0.9892599124        0.2115679303        3.2736726098
 H         -2.1442444305       -0.9641493347        2.6398563376
 H          1.0147114898       -0.0461121726        2.0403059111
 H          1.3985151086       -2.2443109536       -0.7687110018
 H          2.4694941238       -4.2674510855       -1.5949981381
 H          4.9429685229       -4.4214840802       -1.7302229218
 H          6.3047303154       -2.4980031218       -0.8941427521
 H          6.2094753077        2.4740978650        1.1778996366
 H          4.7994962055        4.4895994079        1.6287407616
 H          2.3615905068        4.3535626386        1.1812290978
 H          1.3631406949        2.2860981535        0.3829684756
 H          1.6037925912       -0.8143595243       -2.9007627697
 H          0.5716843632        0.5284892590       -3.4023188308
 H          2.0718174521        0.8356191567       -2.5131431955
 H         -1.4676738021        0.1112311392       -2.2102144670
 H         -1.8817551171       -2.3278558822        0.3274560421
 H         -2.9711583077       -4.3246329779        1.2468856391
 H         -5.4058787507       -4.2822659462        1.7476580063
 H         -6.7356043103       -2.3151768398        1.1752638446
 H         -7.3700120770        1.3704321371        0.9993236128
 H         -7.3544445658       -0.2480069961        1.6951298720
 H         -6.0405048693        0.8755695079        2.0478343310
 H         -6.3715960140       -0.8204190776       -1.8975279927
 H         -7.5386228509       -1.2787536052       -0.6566822798
 H         -7.5828071576        0.3400041736       -1.3486049687
 H         -6.8272658739        2.3574366893       -0.9703186004
 H         -5.5555002054        4.2877511132       -1.7535071355
 H         -3.0738968910        4.2760384196       -1.6159873396
 H         -1.9088124927        2.2873164657       -0.7977977060
