  58
        -91.81550756
 C          7.8176945933        1.5922815482        0.4386192684
 C          6.8906950544        2.1770119364        1.2866852789
 C          5.5555186478        1.8373990706        1.1932576202
 C          5.1263092251        0.8998076777        0.2544280029
 C          3.6988504486        0.5605831321        0.1829411869
 C          3.2662831092       -0.7005194556       -0.2858401771
 C          1.9257896307       -0.9951633690       -0.3396840835
 C          1.4767674343       -2.3331358693       -0.7576552940
 C          1.9291110428       -2.8828026573       -1.9533457674
 C          1.5205060476       -4.1452578379       -2.3423122215
 C          0.6636707654       -4.8778664720       -1.5379291922
 C          0.2193253604       -4.3439703960       -0.3398714620
 C          0.6218928386       -3.0800304216        0.0491973517
 C          0.9990666630        0.0135874651        0.0430153209
 C         -0.3947487899       -0.1241627518       -0.0686952670
 C         -1.2324325707        0.8769460913        0.3607927488
 N         -2.6324153863        0.7209212291        0.2690348207
 C         -3.2805110751       -0.3131169433        0.9475270952
 C         -2.6093305715       -1.1799971175        1.8006819785
 C         -3.2836091153       -2.1988598596        2.4561391543
 C         -4.6422929742       -2.3621796041        2.2797285667
 C         -5.3344243644       -1.4828839367        1.4598396428
 C         -4.6669633661       -0.4636154283        0.8070574698
 O         -5.4271541354        0.3874283756        0.0439394784
 C         -4.7728107938        1.3905524243       -0.6279260688
 C         -5.5437198988        2.2221079113       -1.4179442643
 C         -4.9502333339        3.2387382148       -2.1522206209
 C         -3.5809783717        3.4014020213       -2.1042662948
 C         -2.8029094744        2.5702046189       -1.3124931733
 C         -3.3854757960        1.5699587923       -0.5444184982
 C         -0.7002962175        2.0650164093        0.9040520276
 C          0.6500090134        2.2434508188        0.9793182787
 C          1.5358220212        1.2342102907        0.5399181940
 N          2.8539271653        1.4739514395        0.6068586287
 C          6.0638300462        0.3252124925       -0.6007201497
 C          7.3990766677        0.6716678892       -0.5075496366
 H          8.8626011738        1.8561117222        0.5111522395
 H          7.2128926330        2.8997327074        2.0220016980
 H          4.8200504809        2.2876782878        1.8421978688
 H          3.9908901746       -1.4560798814       -0.5486040136
 H          2.5889039036       -2.3063932082       -2.5860124377
 H          1.8717056596       -4.5589974415       -3.2761983427
 H          0.3456732990       -5.8639309430       -1.8421307993
 H         -0.4436352596       -4.9134058112        0.2946444718
 H          0.2901210206       -2.6753386359        0.9942027808
 H         -0.8106594350       -1.0213441747       -0.5037701551
 H         -1.5511648612       -1.0492190385        1.9641288081
 H         -2.7340215169       -2.8603125532        3.1085289509
 H         -5.1713588001       -3.1569522606        2.7814235523
 H         -6.3999298450       -1.5678203942        1.3175844889
 H         -6.6084627932        2.0542539012       -1.4488541418
 H         -5.5604753681        3.8854586401       -2.7626767912
 H         -3.1017393388        4.1743963002       -2.6851108746
 H         -1.7318310807        2.6979012613       -1.2977993673
 H         -1.3809863757        2.8282377046        1.2519378471
 H          1.0778014400        3.1521731580        1.3723790636
 H          5.7502606167       -0.3765905938       -1.3594032487
 H          8.1169165636        0.2234457073       -1.1790495384
