  58
  -91.4288509313000       0.155920714564210      !
 C          7.8121465316        1.5961493723       -0.5322426576
 C          6.8548130098        2.2296941285       -1.3084724078
 C          5.5222130339        1.8936490279       -1.1755779981
 C          5.1241814541        0.9125199706       -0.2678211318
 C          3.6977695027        0.5777123933       -0.1606985553
 C          3.2704667715       -0.6904612246        0.2939404300
 C          1.9307942655       -0.9846059283        0.3656568764
 C          1.4900177082       -2.3242246772        0.7883624144
 C          0.6324083669       -3.0801140808       -0.0068683760
 C          0.2380364609       -4.3428589605        0.3951138720
 C          0.6926073032       -4.8657776491        1.5943433067
 C          1.5526818743       -4.1241228732        2.3867820623
 C          1.9534255732       -2.8632718478        1.9848624408
 C          0.9984454383        0.0279953518        0.0080280446
 C         -0.3950462465       -0.1215562039        0.1093310883
 C         -1.2366063254        0.8874684288       -0.2920838305
 N         -2.6363050876        0.7060941525       -0.2352487170
 C         -3.4201554765        1.4886556375        0.6128724305
 C         -2.8677863526        2.4354184140        1.4659733058
 C         -3.6753700769        3.1985777326        2.2960091543
 C         -5.0435631211        3.0204354374        2.2946218201
 C         -5.6076959257        2.0576721185        1.4696436304
 C         -4.8075748150        1.2934687738        0.6419071845
 O         -5.4328754219        0.3401485745       -0.1242931172
 C         -4.6444963170       -0.4338111096       -0.9397296558
 C         -5.2845592756       -1.3904224134       -1.7047859691
 C         -4.5608223181       -2.1900118302       -2.5776498054
 C         -3.1974339195       -2.0114670214       -2.6900173067
 C         -2.5502328349       -1.0550910152       -1.9223953088
 C         -3.2552443723       -0.2670502382       -1.0215750554
 C         -0.7113836979        2.1007348733       -0.7823121390
 C          0.6382179109        2.2871396970       -0.8526028428
 C          1.5287438003        1.2638211424       -0.4575379845
 N          2.8458080296        1.5044592017       -0.5393300146
 C          6.0928065360        0.2895555813        0.5161739107
 C          7.4259086548        0.6312436777        0.3828430082
 H          8.8553139489        1.8567398813       -0.6355849422
 H          7.1511578549        2.9879758697       -2.0186297242
 H          4.7640433459        2.3788551662       -1.7700914099
 H          3.9967545534       -1.4519748781        0.5336412787
 H          0.2921552815       -2.6843347748       -0.9529270196
 H         -0.4275130667       -4.9197860568       -0.2300939615
 H          0.3796323548       -5.8502150477        1.9090037795
 H          1.9126457698       -4.5293562851        3.3211500956
 H          2.6161024646       -2.2795206274        2.6079108598
 H         -0.8090163186       -1.0367498654        0.5068436041
 H         -1.7978006929        2.5730967571        1.4862775307
 H         -3.2205526598        3.9304438096        2.9457734541
 H         -5.6764193662        3.6140881941        2.9352652526
 H         -6.6712935501        1.8802811228        1.4580554146
 H         -6.3537262387       -1.4900864637       -1.6069930013
 H         -5.0690874745       -2.9350323986       -3.1690379518
 H         -2.6230326394       -2.6107598641       -3.3799726573
 H         -1.4870978356       -0.9109099934       -2.0345056242
 H         -1.3961586913        2.8741005385       -1.0982431635
 H          1.0618231716        3.2112459308       -1.2129213441
 H          5.8079977437       -0.4486085226        1.2511199366
 H          8.1680741038        0.1436372279        0.9982835061
  58
  -91.4287652818000       0.142410506661993      !
 C          7.8392306714        1.3324808755       -0.8694716096
 C          7.4202207305        0.0284147670       -0.6649601851
 C          6.0771922830       -0.2538918765       -0.4970587308
 C          5.1321954917        0.7692138093       -0.5339139948
 C          3.6985870037        0.5064256391       -0.3489201553
 C          3.2539119388       -0.5856847102        0.4311866465
 C          1.9106873289       -0.8014471368        0.6128637725
 C          1.4372984513       -1.9129981094        1.4545752271
 C          1.8525937468       -3.2132462461        1.1844598909
 C          1.4028557448       -4.2663041898        1.9595606618
 C          0.5431386787       -4.0315955942        3.0196651335
 C          0.1396589172       -2.7380216114        3.3064414349
 C          0.5815703386       -1.6835603967        2.5288145583
 C          0.9950431622        0.0754118944       -0.0307170776
 C         -0.3995437795       -0.0827208737        0.0222812256
 C         -1.2283183991        0.8170955328       -0.6012661914
 N         -2.6309197576        0.6692745582       -0.4943722991
 C         -3.2503280452        0.7728444231        0.7514598323
 C         -2.5623848994        1.1752162652        1.8891027781
 C         -3.2097200839        1.2795154255        3.1109800689
 C         -4.5550511191        0.9911923695        3.2137817316
 C         -5.2620102333        0.6115145598        2.0816231389
 C         -4.6223550895        0.5092144378        0.8608896476
 O         -5.3918063997        0.1551838824       -0.2202132683
 C         -4.7573932493        0.0177256980       -1.4312267021
 C         -5.5286822912       -0.3907970990       -2.5023273180
 C         -4.9522696582       -0.5706393740       -3.7519281392
 C         -3.6001213295       -0.3510258766       -3.9164426029
 C         -2.8204501637        0.0573827532       -2.8444364809
 C         -3.3868785667        0.2617088278       -1.5931934563
 C         -0.6898833204        1.8962843646       -1.3301205270
 C          0.6627823913        2.0543193806       -1.4245844274
 C          1.5411463102        1.1523301228       -0.7832884927
 N          2.8627288020        1.3483322969       -0.9140429695
 C          5.5621173045        2.0761386393       -0.7593887836
 C          6.9051602472        2.3549847625       -0.9212287115
 H          8.8900919967        1.5496269738       -0.9932924089
 H          8.1437395310       -0.7736427825       -0.6378824229
 H          5.7644295571       -1.2787952461       -0.3611010467
 H          3.9700964120       -1.2217120250        0.9285631581
 H          2.5140382697       -3.3954219944        0.3494652412
 H          1.7226140429       -5.2732516410        1.7347654806
 H          0.1902362239       -4.8549398491        3.6225878909
 H         -0.5251855093       -2.5488557872        4.1363667438
 H          0.2753952274       -0.6738559010        2.7625198136
 H         -0.8253177059       -0.9185812567        0.5580438615
 H         -1.5138472779        1.4192620230        1.8159544009
 H         -2.6502751600        1.5933194601        3.9791193031
 H         -5.0631131326        1.0675453313        4.1621230146
 H         -6.3172647739        0.3941181335        2.1255817947
 H         -6.5794245666       -0.5684999246       -2.3374525586
 H         -5.5628440871       -0.8888102323       -4.5820911021
 H         -3.1357297045       -0.4997232348       -4.8791794269
 H         -1.7611605013        0.2120541968       -2.9797007641
 H         -1.3658477633        2.5898511810       -1.8083295941
 H          1.0975580910        2.8672009447       -1.9845037252
 H          4.8225333428        2.8606142461       -0.7989770344
 H          7.2282737917        3.3723185688       -1.0875964660
  58
  -91.4287574191000       0.141230528671676      !
 C          7.8190667412        1.2238187118       -1.0993448970
 C          6.8865362578        2.2450614216       -1.1882490877
 C          5.5510503366        1.9861500384       -0.9511754436
 C          5.1269917307        0.7015449593       -0.6125554673
 C          3.6990307208        0.4612656518       -0.3655424626
 C          3.2662020650       -0.5783340491        0.4883556716
 C          1.9252025066       -0.7805028585        0.7062660306
 C          1.4751844699       -1.8146854844        1.6520151200
 C          1.9363519116       -3.1221942003        1.5329790974
 C          1.5267575952       -4.0932280153        2.4281728495
 C          0.6600590628       -3.7686744803        3.4584217642
 C          0.2068114754       -2.4669609187        3.5923568677
 C          0.6103729594       -1.4951318348        2.6958828103
 C          0.9986789615        0.0500712691        0.0173877559
 C         -0.3945539335       -0.1239950166        0.0701032466
 C         -1.2324931707        0.7437983266       -0.5880650726
 N         -2.6321391668        0.5778224234       -0.5095905932
 C         -3.2900501244        0.6437908158        0.7202126729
 C         -2.6297279333        0.9525928050        1.9027750159
 C         -3.3135577056        1.0060558753        3.1077129786
 C         -4.6711670780        0.7633920438        3.1504554584
 C         -5.3526955699        0.4894765545        1.9736318527
 C         -4.6757057638        0.4384912322        0.7696292194
 O         -5.4259052871        0.1991738158       -0.3548450934
 C         -4.7619177810        0.1235083551       -1.5545207618
 C         -5.5226616762       -0.1489154956       -2.6756666474
 C         -4.9189150511       -0.2722197218       -3.9187319414
 C         -3.5495753902       -0.1410287924       -4.0251091759
 C         -2.7816866330        0.1331367869       -2.9033404393
 C         -3.3747605205        0.2939671769       -1.6574628816
 C         -0.7010358590        1.8119260811       -1.3407051252
 C          0.6491644548        1.9745401534       -1.4472125891
 C          1.5352911452        1.0943864899       -0.7865972851
 N          2.8535880674        1.2802807423       -0.9505929037
 C          6.0701434106       -0.3206930413       -0.5358895787
 C          7.4057264078       -0.0585793380       -0.7790152477
 H          8.8642138305        1.4249612254       -1.2834818176
 H          7.2046585489        3.2452956314       -1.4435069224
 H          4.8113613240        2.7688704542       -1.0218660344
 H          3.9904422927       -1.1795811033        1.0165127149
 H          2.6039038253       -3.3774510573        0.7223867416
 H          1.8849049535       -5.1066673186        2.3217014325
 H          0.3412923600       -4.5274512120        4.1574423704
 H         -0.4638997665       -2.2066318939        4.3978127478
 H          0.2715194414       -0.4764771318        2.8159000210
 H         -0.8097265302       -0.9521800499        0.6259337911
 H         -1.5726219067        1.1659329885        1.8794242728
 H         -2.7722698166        1.2431267347        4.0110310122
 H         -5.2075964321        0.7967666901        4.0855499794
 H         -6.4171683289        0.3173809100        1.9678444274
 H         -6.5876764871       -0.2661097419       -2.5539424446
 H         -5.5212866747       -0.4807266876       -4.7887736972
 H         -3.0623325687       -0.2541259561       -4.9813382783
 H         -1.7103339388        0.2162327873       -2.9983653055
 H         -1.3821038144        2.4909649923       -1.8325617889
 H          1.0766397246        2.7721999866       -2.0339690248
 H          5.7609352527       -1.3306356226       -0.3103686231
 H          8.1279994394       -0.8599072510       -0.7215295780
  58
  -91.4287220404000       0.136040951255478      !
 C          7.8111002934        1.3037190957       -1.0552569720
 C          7.4323500038        0.6923894573        0.1280734212
 C          6.1004068452        0.4157234476        0.3756537271
 C          5.1259523728        0.7510708851       -0.5616652895
 C          3.6996541084        0.4784750904       -0.3381314626
 C          3.2718961302       -0.5801384230        0.4941064988
 C          1.9315641444       -0.8059256455        0.6927102871
 C          1.4899881208       -1.8763966334        1.6022386618
 C          1.9587980612       -3.1756199656        1.4333849023
 C          1.5589769437       -4.1812430022        2.2943837404
 C          0.6952209597       -3.8996541863        3.3395200375
 C          0.2352934117       -2.6061622403        3.5234525438
 C          0.6283911752       -1.5997661817        2.6609811756
 C          0.9999720830        0.0247119336        0.0112821664
 C         -0.3930721710       -0.1525019061        0.0682417370
 C         -1.2343359509        0.7045365886       -0.5994190777
 N         -2.6336240012        0.5437272468       -0.5030265046
 C         -3.2807652777        0.6735546104        0.7275337360
 C         -2.6037312251        1.0047932745        1.8944404134
 C         -3.2788354399        1.1277385181        3.0992981224
 C         -4.6435195893        0.9329805203        3.1573325705
 C         -5.3397900513        0.6323905658        1.9957198217
 C         -4.6713757631        0.5101693618        0.7920724380
 O         -5.4346500857        0.2428119074       -0.3172812808
 C         -4.7837401694        0.1270723737       -1.5210201768
 C         -5.5611028348       -0.1474969645       -2.6301068614
 C         -4.9717812700       -0.3079681968       -3.8759067055
 C         -3.6008433491       -0.2105148016       -3.9968912808
 C         -2.8161962924        0.0651009105       -2.8871057430
 C         -3.3938558128        0.2612434917       -1.6390759304
 C         -0.7079016614        1.7597853071       -1.3733976368
 C          0.6413924265        1.9261567592       -1.4823576243
 C          1.5311001431        1.0637565522       -0.8032318005
 N          2.8480414775        1.2669316050       -0.9555518121
 C          5.5162152716        1.3798431759       -1.7435369433
 C          6.8478188731        1.6501325582       -1.9892329556
 H          8.8532305669        1.5143107586       -1.2457138933
 H          8.1793152273        0.4319565765        0.8641050345
 H          5.8201646220       -0.0395602473        1.3141042617
 H          3.9976821413       -1.2117221363        0.9831058317
 H          2.6256367671       -3.3965298469        0.6120903373
 H          1.9234650650       -5.1877666153        2.1499219452
 H          0.3842280311       -4.6852629332        4.0120125021
 H         -0.4324076180       -2.3795447308        4.3416605631
 H          0.2839809718       -0.5879101031        2.8190925561
 H         -0.8062173057       -0.9721644470        0.6378637494
 H         -1.5402733765        1.1817701538        1.8589892333
 H         -2.7251778710        1.3825926175        3.9901573395
 H         -5.1736164792        1.0238392767        4.0922121358
 H         -6.4091825748        0.4941605268        2.0014845912
 H         -6.6273525685       -0.2370203755       -2.4968154268
 H         -5.5866608134       -0.5185804629       -4.7366192467
 H         -3.1258485564       -0.3517200586       -4.9555673905
 H         -1.7440754064        0.1216316063       -2.9926212654
 H         -1.3920790392        2.4282971230       -1.8752377578
 H          1.0662984746        2.7182048387       -2.0784919766
 H          4.7534598826        1.6462931831       -2.4583009936
 H          7.1387239315        2.1328063032       -2.9107632062
  58
  -91.4286400053000       0.124729430209415      !
 C          7.7874762980        1.4145818537       -1.0006273459
 C          7.4022711702        0.8303882787        0.1944148964
 C          6.0755673798        0.5123399810        0.4196149494
 C          5.1136198721        0.7809364199       -0.5512733273
 C          3.6924824766        0.4728983051       -0.3416644862
 C          3.2847716053       -0.5986575586        0.4832732207
 C          1.9486204193       -0.8487853311        0.6832856632
 C          1.5338702890       -1.9510548159        1.5674723841
 C          2.0252831211       -3.2349753785        1.3492750493
 C          1.6558041449       -4.2770168346        2.1795288912
 C          0.7995501080       -4.0477623945        3.2435969098
 C          0.3177340335       -2.7704596199        3.4766703235
 C          0.6807248533       -1.7272013852        2.6446777098
 C          1.0010257642       -0.0236164158        0.0171437414
 C         -0.3912596023       -0.2078707950        0.0949229594
 C         -1.2444832373        0.6360377317       -0.5731170927
 N         -2.6439714797        0.4759503473       -0.4641047694
 C         -3.3011334306        0.7189727867        0.7434607100
 C         -2.6214311313        1.0364329967        1.9123257879
 C         -3.3086245360        1.2800299117        3.0920067288
 C         -4.6865298630        1.2192872336        3.1220963135
 C         -5.3821848977        0.9245818531        1.9584790003
 C         -4.7020581822        0.6806857304        0.7803368549
 O         -5.4637971608        0.4219972440       -0.3327123662
 C         -4.8012270082        0.1775951873       -1.5103593836
 C         -5.5737414143       -0.1014152609       -2.6216995008
 C         -4.9715473719       -0.3830097152       -3.8397712498
 C         -3.5948197015       -0.3997641376       -3.9311612610
 C         -2.8150900185       -0.1195471309       -2.8191619942
 C         -3.4032608118        0.1936615374       -1.6003737741
 C         -0.7344566388        1.6810565620       -1.3718722924
 C          0.6115276350        1.8601206961       -1.4932067896
 C          1.5143168791        1.0169519884       -0.8073042735
 N          2.8273057033        1.2415128448       -0.9641767762
 C          5.5090111670        1.3816284099       -1.7455479330
 C          6.8361075589        1.6911301270       -1.9695703764
 H          8.8253506440        1.6588199236       -1.1734223007
 H          8.1394481389        0.6247681336        0.9571049753
 H          5.7863943551        0.0790490912        1.3659562238
 H          4.0239633825       -1.2234819918        0.9611476004
 H          2.6862223937       -3.4141777510        0.5131436858
 H          2.0374585601       -5.2706775084        1.9956323259
 H          0.5112196754       -4.8618803276        3.8918314532
 H         -0.3435315994       -2.5849245542        4.3103264214
 H          0.3203741464       -0.7280852341        2.8436777771
 H         -0.7926923079       -1.0233416663        0.6785507345
 H         -1.5453706028        1.1097836362        1.8971462358
 H         -2.7533387872        1.5232174952        3.9850855917
 H         -5.2266084651        1.4079435099        4.0364435733
 H         -6.4596935627        0.8860905667        1.9424921931
 H         -6.6465488578       -0.0959044986       -2.5132235340
 H         -5.5826933615       -0.5961946041       -4.7025331477
 H         -3.1120694392       -0.6342054048       -4.8674493518
 H         -1.7393463587       -0.1485341878       -2.8980313334
 H         -1.4298107195        2.3305041274       -1.8834086558
 H          1.0245747363        2.6470637289       -2.1041641986
 H          4.7553210009        1.5963464727       -2.4870028281
 H          7.1324653655        2.1516320153       -2.9007731649
  58
  -91.4283282009000       8.967544854524044E-002 !
 C          7.7827847191        1.4526713986       -0.9486759295
 C          6.8776921674        2.4578826787       -0.6472946199
 C          5.5512774314        2.1500650254       -0.4176841263
 C          5.1097449320        0.8288979893       -0.4774658252
 C          3.6906139430        0.5344980116       -0.2388900952
 C          3.2733882290       -0.7210673174        0.2572634566
 C          1.9378416967       -0.9803263534        0.4478441367
 C          1.5093935167       -2.2617621807        1.0304994671
 C          1.9619498464       -3.4632471675        0.4931994140
 C          1.5783555604       -4.6685648387        1.0517552123
 C          0.7475570458       -4.6886797099        2.1596606007
 C          0.3028015710       -3.4972724434        2.7084441275
 C          0.6783323995       -2.2904326257        2.1478639737
 C          0.9995647849        0.0279679321        0.0928117529
 C         -0.3938814573       -0.1534666141        0.1258878021
 C         -1.2387882624        0.8752486390       -0.2124550279
 N         -2.6377865197        0.6744795288       -0.2204020635
 C         -3.4533870885        1.3639722222        0.6759397501
 C         -2.9311953711        2.1873576566        1.6651528855
 C         -3.7686011450        2.8546108427        2.5468243659
 C         -5.1370402258        2.7011706594        2.4603045396
 C         -5.6725799621        1.8619427085        1.4932956165
 C         -4.8430766049        1.1944412651        0.6126709120
 O         -5.4410643994        0.3623152843       -0.3017257447
 C         -4.6224940669       -0.3138545124       -1.1733755364
 C         -5.2361741955       -1.1420687549       -2.0938501653
 C         -4.4784525619       -1.8394816203       -3.0238465718
 C         -3.1068321257       -1.6911271337       -3.0315827693
 C         -2.4855327287       -0.8626255954       -2.1090917431
 C         -3.2278239148       -0.1743709831       -1.1581573509
 C         -0.7192702464        2.1337785908       -0.5798161304
 C          0.6290789530        2.3278693009       -0.6472002370
 C          1.5237914637        1.2787945330       -0.3384417845
 N          2.8378937947        1.5037714522       -0.4860155994
 C          6.0251283648       -0.1738819874       -0.7893959527
 C          7.3512334951        0.1389279928       -1.0241261341
 H          8.8204680742        1.6921536031       -1.1291965617
 H          7.2098712876        3.4844018160       -0.5938398403
 H          4.8328889382        2.9211156167       -0.1874759712
 H          4.0072419763       -1.4605045196        0.5396225164
 H          2.6026645575       -3.4474064518       -0.3769829921
 H          1.9289010397       -5.5953866095        0.6217143382
 H          0.4501223847       -5.6303033981        2.5966549749
 H         -0.3386025718       -3.5076912952        3.5775317317
 H          0.3462419515       -1.3612716397        2.5888130496
 H         -0.8032156003       -1.1158464427        0.3970323129
 H         -1.8617127226        2.3040311946        1.7491806141
 H         -3.3371394218        3.4923836840        3.3030904974
 H         -5.7930082688        3.2199510134        3.1415133799
 H         -6.7366933642        1.7093477207        1.4088246351
 H         -6.3111657764       -1.2234656013       -2.0705763479
 H         -4.9664805945       -2.4835943417       -3.7381077112
 H         -2.5043785651       -2.2150251818       -3.7577254184
 H         -1.4135924326       -0.7441309230       -2.1356932215
 H         -1.4082336895        2.9270293811       -0.8307695432
 H          1.0485625200        3.2710974490       -0.9594628635
 H          5.6996493558       -1.2002304765       -0.8751795840
 H          8.0514043005       -0.6460674657       -1.2709939718
  58
  -91.4282251977000       8.041490707766816E-002 !
 C          7.8098598309        1.4535649209       -0.8448131736
 C          6.8788732139        1.7553087770       -1.8260051040
 C          5.5463389258        1.4477740866       -1.6348368454
 C          5.1230346382        0.8258511314       -0.4607101325
 C          3.6983413685        0.5091673469       -0.2932513417
 C          3.2728465432       -0.5488806964        0.5410598080
 C          1.9351965589       -0.8315856991        0.6725835123
 C          1.4995228300       -1.9612960098        1.5101554575
 C          0.6933871981       -2.9697671337        0.9892195006
 C          0.3062280441       -4.0338664243        1.7830291777
 C          0.7139616947       -4.1018833397        3.1046976990
 C          1.5212702640       -3.1059790644        3.6282344128
 C          1.9171102051       -2.0448748658        2.8350299288
 C          1.0014735125       -0.0134540800       -0.0210775576
 C         -0.3927469433       -0.1550504291        0.0862739880
 C         -1.2352374833        0.6714477358       -0.6175664254
 N         -2.6352057275        0.5382140293       -0.4955065976
 C         -3.2739356990        0.7522147176        0.7281369116
 C         -2.5826137235        1.1109718276        1.8784364108
 C         -3.2520347167        1.3204597858        3.0746169781
 C         -4.6234574203        1.1849168262        3.1406198653
 C         -5.3320436056        0.8536199652        1.9950380749
 C         -4.6698242302        0.6452570547        0.7999466120
 O         -5.4452946994        0.3502390748       -0.2942124852
 C         -4.8005514241        0.1292993496       -1.4859495223
 C         -5.5878864623       -0.1939478292       -2.5748159208
 C         -5.0059290286       -0.4579375366       -3.8064564599
 C         -3.6326493594       -0.4150369665       -3.9324419457
 C         -2.8380529237       -0.0921580472       -2.8425718783
 C         -3.4070555397        0.2077997516       -1.6110023856
 C         -0.7081882838        1.6718085283       -1.4614888450
 C          0.6405399060        1.8378440805       -1.5748626304
 C          1.5316429450        1.0116953741       -0.8537617227
 N          2.8472881526        1.2407530032       -0.9778753003
 C          6.0646410145        0.5366664044        0.5245804016
 C          7.3974274356        0.8498721136        0.3313536772
 H          8.8528242560        1.6919664637       -0.9934700844
 H          7.1961315749        2.2310657640       -2.7423681431
 H          4.8086553507        1.6786299752       -2.3873067443
 H          4.0005281818       -1.1711586706        1.0391831733
 H          0.3900295168       -2.9274315732       -0.0471415014
 H         -0.3165101330       -4.8128966533        1.3682336296
 H          0.4058025741       -4.9309125350        3.7242965805
 H          1.8442934583       -3.1566155874        4.6577352386
 H          2.5397841894       -1.2622670840        3.2447399630
 H         -0.8049944413       -0.9115173938        0.7380053597
 H         -1.5122159956        1.2381099840        1.8394722499
 H         -2.6868882427        1.5936822995        3.9524870998
 H         -5.1486403935        1.3430856439        4.0692034912
 H         -6.4060164789        0.7572807528        2.0063637260
 H         -6.6564567178       -0.2373748977       -2.4373342577
 H         -5.6287848765       -0.7046787360       -4.6516527735
 H         -3.1634995194       -0.6355205479       -4.8790454805
 H         -1.7647298757       -0.0776010656       -2.9511216198
 H         -1.3927657013        2.3132280643       -1.9970788091
 H          1.0631900061        2.6109034046       -2.1969531582
 H          5.7570206456        0.0867376974        1.4571099305
 H          8.1182088077        0.6244237506        1.1040513613
  58
  -91.4280808579000       6.902439125829521E-002 !
 C          7.8125431244        1.4028126652       -0.8904954175
 C          7.4385148966        0.1140795412       -0.5485569753
 C          6.1050865841       -0.1979777843       -0.3572458618
 C          5.1241706868        0.7799405475       -0.5080461634
 C          3.6975213087        0.4889535745       -0.3138882668
 C          3.2683133587       -0.5557206400        0.5344047890
 C          1.9290608965       -0.8229185426        0.6822018419
 C          1.4976917031       -1.9350354207        1.5458602540
 C          0.6917972639       -2.9564697509        1.0505386355
 C          0.3178728606       -4.0082497782        1.8667625914
 C          0.7400809550       -4.0514647038        3.1850962528
 C          1.5471642754       -3.0423293838        3.6831409317
 C          1.9288694689       -1.9929850949        2.8678455701
 C          0.9968206542       -0.0027708025       -0.0108071361
 C         -0.3979295601       -0.1458394321        0.0893717508
 C         -1.2387292801        0.6977505357       -0.5964000171
 N         -2.6388908432        0.5535097200       -0.4930832612
 C         -3.2903265718        0.7071069996        0.7328654264
 C         -2.6145557113        1.0388088082        1.9004972593
 C         -3.2952352196        1.1840760306        3.0998160006
 C         -4.6629547341        1.0099300914        3.1524283554
 C         -5.3571809468        0.7088840022        1.9899472836
 C         -4.6838151326        0.5665175504        0.7913309884
 O         -5.4464980135        0.3019752737       -0.3194041912
 C         -4.7914075723        0.1580284872       -1.5171548700
 C         -5.5681919888       -0.1175324550       -2.6266249571
 C         -4.9760212859       -0.3085191700       -3.8666098706
 C         -3.6025340999       -0.2430144016       -3.9805045054
 C         -2.8187542082        0.0336069694       -2.8703894785
 C         -3.3985703515        0.2643476992       -1.6289516058
 C         -0.7088860150        1.7246512999       -1.4061954943
 C          0.6401035418        1.8899940012       -1.5153627705
 C          1.5295324176        1.0380905727       -0.8228348970
 N          2.8458285557        1.2544471397       -0.9596372032
 C          5.5099864748        2.0708684757       -0.8679838143
 C          6.8429957325        2.3795605669       -1.0540872366
 H          8.8558574018        1.6429901942       -1.0344686896
 H          8.1901326056       -0.6535847731       -0.4320114126
 H          5.8299744157       -1.2138757656       -0.1152514122
 H          3.9921027697       -1.1508002217        1.0698567583
 H          0.3795462337       -2.9349330908        0.0160793569
 H         -0.3040793881       -4.7981718397        1.4718674746
 H          0.4440709955       -4.8717676884        3.8218988064
 H          1.8810755954       -3.0737876228        4.7098771532
 H          2.5525350167       -1.2008455104        3.2572050036
 H         -0.8123873677       -0.9187047120        0.7199875338
 H         -1.5476135592        1.1948009786        1.8726836383
 H         -2.7418366468        1.4376811068        3.9909211775
 H         -5.1964763017        1.1160007163        4.0837491577
 H         -6.4284806230        0.5856133914        1.9902679936
 H         -6.6367433981       -0.1829478694       -2.4977112468
 H         -5.5905338538       -0.5179130646       -4.7278505197
 H         -3.1247062023       -0.4095805278       -4.9337209922
 H         -1.7452170198        0.0650055735       -2.9719059878
 H         -1.3915792702        2.3834658449       -1.9226999555
 H          1.0644428116        2.6769695285       -2.1185205358
 H          4.7427705628        2.8186705051       -0.9944778423
 H          7.1304712348        3.3840918438       -1.3277059348
  58
  -91.4279571199000       6.055312175602440E-002 !
 C          7.8148633757        1.3244772875       -0.9991996532
 C          6.8563038231        2.3121043429       -1.1612067099
 C          5.5236436524        2.0273426828       -0.9381932009
 C          5.1280859011        0.7505825200       -0.5411265536
 C          3.7013688398        0.4813298331       -0.3179667073
 C          3.2717995178       -0.5323482644        0.5674347680
 C          1.9321047305       -0.7881977693        0.7288401934
 C          1.4942552426       -1.8565867991        1.6436676119
 C          0.6989816924       -2.9069145338        1.1944520424
 C          0.3104642501       -3.9092538938        2.0645576003
 C          0.7075939021       -3.8735890678        3.3907726234
 C          1.5056804457       -2.8360834019        3.8429008668
 C          1.9018452886       -1.8361265014        2.9740774329
 C          1.0005245491        0.0083072809        0.0077209039
 C         -0.3941857121       -0.1387081168        0.1034727937
 C         -1.2347114416        0.6874226828       -0.6035975113
 N         -2.6346388021        0.5374698512       -0.5129486911
 C         -3.3014477239        0.6828587080        0.7061184823
 C         -2.6411344623        1.0015610584        1.8861463921
 C         -3.3376786571        1.1370508510        3.0775730559
 C         -4.7064714182        0.9666040701        3.1101647885
 C         -5.3855612500        0.6797963300        1.9352867729
 C         -4.6962867496        0.5473006369        0.7445160409
 O         -5.4457496958        0.2991411551       -0.3788566801
 C         -4.7738235802        0.1395144826       -1.5650306165
 C         -5.5353781841       -0.1438461782       -2.6831867785
 C         -4.9258176498       -0.3502299669       -3.9121617993
 C         -3.5503928998       -0.2934189511       -4.0057367282
 C         -2.7820406376       -0.0091909388       -2.8868246655
 C         -3.3791053728        0.2387901443       -1.6568584539
 C         -0.7040581085        1.7018876642       -1.4289453204
 C          0.6447616438        1.8662801410       -1.5397152762
 C          1.5336476419        1.0278505913       -0.8301828944
 N          2.8502842261        1.2350688475       -0.9778695010
 C          6.0977758882       -0.2381495749       -0.3895623515
 C          7.4306647358        0.0496946705       -0.6185504267
 H          8.8575553178        1.5454307406       -1.1741918085
 H          7.1516818595        3.3059384085       -1.4645344735
 H          4.7645202986        2.7832204787       -1.0652241434
 H          3.9959473776       -1.1096457516        1.1218361705
 H          0.4045674803       -2.9464391077        0.1552693395
 H         -0.3037201789       -4.7220921296        1.7054558024
 H          0.3992452764       -4.6549039592        4.0693649479
 H          1.8204684929       -2.8055713690        4.8757558452
 H          2.5187859551       -1.0215749135        3.3266056683
 H         -0.8079997944       -0.9031966131        0.7446012888
 H         -1.5738686687        1.1570257739        1.8750697448
 H         -2.7957139088        1.3804934529        3.9784986225
 H         -5.2521783617        1.0635063473        4.0353717667
 H         -6.4571670084        0.5603993261        1.9197543807
 H         -6.6060524473       -0.2028354451       -2.5697860739
 H         -5.5284678497       -0.5655370573       -4.7804358067
 H         -3.0588927498       -0.4718117661       -4.9497269974
 H         -1.7069478241        0.0141262003       -2.9725009690
 H         -1.3865691198        2.3500382378       -1.9589864200
 H          1.0697728130        2.6410195844       -2.1580173605
 H          5.8123415669       -1.2436700589       -0.1173061996
 H          8.1737134803       -0.7261110061       -0.5027296961
