62
 energy: -95.172611241247 gnorm: 0.000087755415 xtb: 6.7.1 (edcfbbe)
C           -7.90380182741154       -2.98270167193385       -0.50516483288840
C           -6.81056191504270       -2.95226861967673       -1.35926012146418
C           -5.81022806420048       -2.01761435970100       -1.18104472407709
C           -5.89364824827973       -1.09672325062872       -0.13447138606557
N           -4.88408460581724       -0.14640917489505        0.04599220996760
C           -5.08076250522043        1.21672391959639        0.20581433256430
C           -6.26255169596385        1.94294930936314        0.21522393651865
C           -6.17572959691454        3.31859340958642        0.36577198855508
C           -4.94913165604729        3.95780233626658        0.49109451917257
C           -3.76306378363026        3.23718270272068        0.45111665717837
C           -3.82632923655249        1.86294338456098        0.30209382331676
C           -2.82002030371016        0.83095070038669        0.19278752732366
C           -1.45571089808264        0.85616519141566        0.22829259625502
C           -0.70354335389524       -0.36841515462893        0.13563568388747
C            0.70317388642234       -0.37359686346688        0.14636308511870
C            1.46379577422520       -1.57868742017517        0.38618959412460
C            2.82406138466843       -1.61992940863633        0.37566122851578
C            3.53472648921723       -0.43955301595425        0.09091466476954
C            2.82753695698062        0.78537855067764       -0.10571695927757
C            1.46354974424297        0.83006971999304       -0.07075897279322
C            3.83964055064686        1.79735507683735       -0.30828634309573
C            3.78424849812671        3.15528084750514       -0.56835675466598
C            4.97404433781122        3.84755446480925       -0.74939707649286
C            6.19650073937997        3.19121406550742       -0.68908614871712
C            6.27566346216666        1.83175862347841       -0.42795348796498
C            5.09021101380724        1.14293782408619       -0.21675321235920
N            4.88555399307862       -0.20636708258984        0.02713820909078
C            5.88939816778235       -1.17121014924778        0.15306908136619
C            5.80634932808607       -2.36902241411724       -0.55962247720072
C            6.79522681488684       -3.32292454121944       -0.42362747113450
C            7.87663343484720       -3.09895961853577        0.41673698121913
C            7.96183094566598       -1.90875786062115        1.12492095980320
C            6.97676217143623       -0.94925545060047        1.00078899338501
C           -1.47234435784542       -1.58842724978548        0.04040783758519
C           -2.83205369890224       -1.61344717808943       -0.01459595975426
C           -3.53469668002193       -0.39558077978190        0.03633078198086
C           -6.99042680176490       -1.13451829907289        0.72886037253327
C           -7.98688855197567       -2.07112660343019        0.53774185755805
H           -8.68516204984099       -3.71314528800318       -0.65042301874919
H           -6.74282618129064       -3.65713783781521       -2.17503633816877
H           -4.97069981659109       -1.97533655176312       -1.85901215288480
H           -7.22057647119009        1.46051435616707        0.09723983183129
H           -7.08349798709664        3.90391099504389        0.38156230574412
H           -4.91890080855846        5.03077325737477        0.61102016427043
H           -2.80994304632596        3.73810641431498        0.53048346874796
H           -0.94728146422192        1.79304212555679        0.38443621670017
H            0.93088335623057       -2.48061775931200        0.64002020659478
H            3.35039086553345       -2.53552857993583        0.60259317806524
H            0.95977488584621        1.76557375424250       -0.24748299461628
H            2.83420338476718        3.66361184389061       -0.63635505523198
H            4.94961294968640        4.90817120106231       -0.95194402033701
H            7.10698625016628        3.74887675229098       -0.85314179126420
H            7.23043326618765        1.32941111776695       -0.40392295762701
H            4.97567674293471       -2.53015010118903       -1.23058260076686
H            6.72682221508390       -4.24540028077637       -0.98151129031807
H            8.64763554767535       -3.84745408235111        0.51950418736179
H            8.79710516448068       -1.73262400105324        1.78690337715091
H            7.02558825847906       -0.03567926236208        1.57444929625981
H           -0.94463219972151       -2.52595286407575       -0.02352057954384
H           -3.36407572629624       -2.55078431154645       -0.08574719809653
H           -7.03925776909036       -0.44300395273806        1.55674159372869
H           -8.83092120535572       -2.09699412992017        1.21144996224350
