62
 energy: -95.276833951467 gnorm: 0.000056247996 xtb: 6.7.1 (edcfbbe)
C           -7.87323390605614       -2.82996935842697       -0.96122454195243
C           -7.88765597358748       -1.54005216082692       -1.46640790973829
C           -6.89455817471086       -0.64299428786240       -1.11742190695341
C           -5.88102776990779       -1.03275619827371       -0.24661640485216
N           -4.87344644394758       -0.12342828815607        0.11397637329083
C           -5.07318495675905        1.15035607183637        0.60732701820449
C           -6.25879940764315        1.80382717721004        0.91380152759756
C           -6.17651477784836        3.08243654216010        1.43161115401110
C           -4.94714137262316        3.70154947614465        1.65007914785687
C           -3.76369838511910        3.04888133669939        1.36672308385272
C           -3.82040048730210        1.76252931294651        0.84574197847702
C           -2.81985785818296        0.80368530056275        0.46653398898158
C           -1.43331253675272        0.82985405072502        0.45400250411210
C           -0.73599123278292       -0.28573682774491        0.00885492798637
C            0.73598712813711       -0.28574757873889       -0.00884861704705
C            1.44421112818716       -1.41071022913453        0.43677843695035
C            2.82330709574881       -1.45570569416133        0.44230306811016
C            3.51414465837690       -0.34754358823701       -0.02817394456974
C            2.81986942344384        0.80364111670977       -0.46653587206308
C            1.43332449994507        0.82983012916225       -0.45400402891842
C            3.82042583432174        1.76246852702953       -0.84574937841581
C            3.76374209287951        3.04881861022716       -1.36673727590995
C            4.94719439133454        3.70146671690630       -1.65010069199004
C            6.17655885977218        3.08233632989315       -1.43163185643385
C            6.25882522388020        1.80372916616040       -0.91381381343711
C            5.07320150622169        1.15027769346269       -0.60733339243181
N            4.87344467862139       -0.12350068595346       -0.11397454497025
C            5.88101282309205       -1.03284185870305        0.24662134148058
C            5.87050392260226       -2.32748921292593       -0.26421495528062
C            6.86205892528109       -3.22086055648013        0.09865198736965
C            7.87319445301649       -2.83008072570067        0.96123345708315
C            7.88763852557558       -1.54016020092033        1.46640774305648
C            6.89455189686078       -0.64309013054585        1.11742132429193
C           -1.44423140649635       -1.41069217695449       -0.43676485593339
C           -2.82332802751498       -1.45566739864994       -0.44229023416567
C           -3.51414967486649       -0.34749205305324        0.02817900616721
C           -5.87054027827382       -2.32740045254630        0.26422810090826
C           -6.86210872046726       -3.22075837990723       -0.09863514764407
H           -8.64807757043982       -3.52858605862408       -1.23929496158919
H           -8.67172469316121       -1.23217004420962       -2.14255237561642
H           -6.89101678013539        0.35750080015339       -1.52419314049637
H           -7.21568306255707        1.32677517803377        0.76360544094186
H           -7.08561923117158        3.61253396472800        1.67645923067275
H           -4.92447122604068        4.70274143576044        2.05532621799065
H           -2.81085245235519        3.52300950660239        1.55042378351597
H           -0.90211507804032        1.70280921328387        0.80322832020635
H            0.88957921637211       -2.25915169993932        0.81057812493872
H            3.34528839879682       -2.32472459109331        0.81406790376445
H            0.90213964076265        1.70279157631832       -0.80323324666133
H            2.81090293890290        3.52295940803046       -1.55044041350244
H            4.92453862444937        4.70265786853786       -2.05535053112205
H            7.08567099967087        3.61242062068148       -1.67647980234465
H            7.21570207675809        1.32666443413370       -0.76361495072370
H            5.09141856776003       -2.62166879589530       -0.95180846452854
H            6.84873996972514       -4.22433711432093       -0.30089029439963
H            8.64802638027364       -3.52870853578807        1.23930847068268
H            8.67170951610759       -1.23228840315000        2.14255424243604
H            6.89102564709375        0.35740669149116        1.52418844624589
H           -0.88961172064593       -2.25914370779409       -0.81055989432251
H           -3.34532188277394       -2.32468030679928       -0.81405143355849
H           -5.09145927387706       -2.62158882269556        0.95182280351553
H           -6.84880368194143       -4.22423413139587        0.30090972687455
