62
 energy: -95.172653294007 gnorm: 0.000042088505 xtb: 6.7.1 (edcfbbe)
C           -7.89052554219202       -3.06373921478099        0.27003452060519
C           -6.79332901517483       -3.26268575417682       -0.55603088441210
C           -5.80046566191661       -2.30707028960471       -0.64118092614585
C           -5.89561428154612       -1.13288232337178        0.10843590946299
N           -4.88804574416732       -0.16678527425874        0.02902075487492
C           -5.08319012024154        1.18800656289153       -0.19039977668687
C           -6.26303589449044        1.88816267929780       -0.39559793649277
C           -6.17423647587411        3.25200790322380       -0.62827196879403
C           -4.94749506705219        3.90206530319993       -0.66724490327876
C           -3.76313043991586        3.19909120566675       -0.49217899132408
C           -3.82808541167115        1.83674355134640       -0.25941131310869
C           -2.82312193987888        0.81499082156503       -0.06858687481345
C           -1.45918567755416        0.85023021158826       -0.02587698009195
C           -0.70610252847809       -0.36143325349762        0.17918621578004
C            0.70003500677088       -0.36812905338137        0.16572537061896
C            1.46023368515863       -1.59650273222940        0.10888272699521
C            2.81923300125088       -1.63508872328677        0.04877373202149
C            3.53235917852945       -0.42225049124169        0.04720884135725
C            2.82843775430032        0.81451654586004        0.16254143309998
C            1.46490525958680        0.85237796505238        0.21247995663583
C            3.84355252832565        1.84245263296331        0.21777426431973
C            3.79194374868064        3.22236829632025        0.30598812018229
C            4.98328565919515        3.93509499205895        0.29899792374967
C            6.20383425431585        3.28150129410348        0.18823487476945
C            6.27909007724263        1.90005157351605        0.09848451728502
C            5.09209534273295        1.18306622470904        0.13451548690935
N            4.88362111132454       -0.18382384008245        0.03341708313379
C            5.88336762411681       -1.15040051392365       -0.11160883886039
C            5.78258627394220       -2.11851985847832       -1.11287843053365
C            6.77058039580756       -3.07291344352429       -1.25167510486126
C            7.86859729781527       -3.07589642719121       -0.40326551737580
C            7.96998814220154       -2.11572518268720        0.59330816778159
C            6.98560808622415       -1.15939897163797        0.74538638618875
C           -1.47828684800887       -1.56260822915323        0.40559330000719
C           -2.83832216349785       -1.59593403086811        0.37965187410831
C           -3.53929803401165       -0.40829325711469        0.10116355297640
C           -6.99826472810325       -0.93659058936488        0.94229796567032
C           -7.98699500913665       -1.89777054656053        1.01592551090427
H           -8.66479798392621       -3.81327690652414        0.33297768267593
H           -6.71570582185180       -4.16640977565975       -1.14266305048768
H           -4.95662841238594       -2.44799211925038       -1.30027087351721
H           -7.22079616963517        1.39097737559076       -0.38821407495053
H           -7.08033904021356        3.81842804158659       -0.78656330249009
H           -4.91550343695277        4.96646001827727       -0.84775438661547
H           -2.80974650333553        3.70320446921433       -0.54317227440211
H           -0.95104817918658        1.78695959380343       -0.18091745478953
H            0.92731781549178       -2.53276877636569        0.08621889432561
H            3.34285798657815       -2.57914800049676        0.01264916289148
H            0.96804391821339        1.79995315626277        0.33637231031273
H            2.84336383988117        3.73353625070200        0.37372095592394
H            4.96199509963890        5.01261572417443        0.37009334050733
H            7.11579068194821        3.86012251474783        0.16679992503804
H            7.23221327963606        1.40553242239354       -0.00890295187131
H            4.93936746683515       -2.09800158147225       -1.78730209789850
H            6.68906094785101       -3.81553247164734       -2.03193334313602
H            8.63982192266468       -3.82247649231087       -0.51732456202996
H            8.81812103430209       -2.11923109446901        1.26234533124610
H            7.04768259478081       -0.43010473156144        1.53928321121774
H           -0.95564945927699       -2.47169617421740        0.65438902660257
H           -3.37253541387466       -2.51098632015893        0.59009055851071
H           -7.05695577351509       -0.04240918695844        1.54476355641336
H           -8.83484298749386       -1.74168445572846        1.66687755386229
