  54
        -83.65974604
 N          5.1021018571       -2.8638506803       -0.3376396720
 C          5.1748964624       -1.7261764689       -0.1927024497
 C          5.3760744393       -0.3409588836       -0.0193841445
 C          4.3816250503        0.5737662624        0.0749148602
 C          2.9517924081        0.3898171562        0.0711645673
 C          2.3184564610       -0.8556341511        0.1543526264
 C          0.9449889708       -0.9547181756        0.1437630471
 C          0.1452442239        0.1875824418        0.0502870955
 C         -1.2954766646        0.1320122657        0.0299311812
 N         -2.0830718042        1.1848449066       -0.0319166734
 C         -3.3603851178        0.7315474609       -0.0359303026
 C         -4.4735173519        1.6629702295       -0.1571894795
 C         -5.6478109244        1.3182056035       -0.8234705863
 C         -6.6800862030        2.2307397329       -0.9305673982
 C         -6.5538577989        3.4973765298       -0.3834820325
 C         -5.3812895290        3.8537895859        0.2623463801
 C         -4.3460669227        2.9456393222        0.3723056735
 C         -3.3600007481       -0.6593382468        0.0368905258
 C         -4.4213396085       -1.6444546356        0.1346257773
 C         -5.5837583928       -1.3673953086        0.8559078676
 C         -6.5839528090       -2.3138116818        0.9577147808
 C         -6.4421029519       -3.5512207457        0.3492210679
 C         -5.2893315359       -3.8385340405       -0.3619333153
 C         -4.2841641737       -2.8957059374       -0.4676346083
 N         -2.0377483834       -1.0123629050        0.0645616808
 C          0.7710268901        1.4370308265       -0.0225273555
 C          2.1408759047        1.5332592265       -0.0081835634
 C          6.7963278537        0.0507003707        0.0143286814
 C          7.7330352512       -0.6432187493       -0.7510792528
 C          9.0637678975       -0.2708024609       -0.7354567217
 C          9.4819490898        0.7901642488        0.0505016219
 C          8.5610051887        1.4748027072        0.8262491626
 C          7.2284359802        1.1094145391        0.8112944409
 H          4.6935870061        1.6100498364        0.1353912332
 H          2.9087736160       -1.7533843450        0.2366937315
 H          0.4970942493       -1.9356778301        0.2127122773
 H         -5.7452064940        0.3383782082       -1.2675838306
 H         -7.5870396309        1.9541342539       -1.4486163297
 H         -7.3644952043        4.2063744835       -0.4674662461
 H         -5.2753462171        4.8442492124        0.6809274391
 H         -3.4248514440        3.2108650983        0.8674990746
 H         -5.6891678104       -0.4079378447        1.3392721503
 H         -7.4785203688       -2.0874999837        1.5188220790
 H         -7.2266026944       -4.2886309241        0.4298386356
 H         -5.1732823637       -4.8006692586       -0.8390914418
 H         -3.3976450495       -3.1223672524       -1.0440361620
 H         -1.6948434106       -1.9553915826        0.1429513864
 H          0.1473067605        2.3139112922       -0.0904388300
 H          2.6077077054        2.5064414488       -0.0667166391
 H          7.4102231973       -1.4694246620       -1.3679215831
 H          9.7775961854       -0.8119897399       -1.3385676491
 H         10.5224331621        1.0784200007        0.0641693334
 H          8.8836384728        2.2947102797        1.4511192221
 H          6.5229110846        1.6331199867        1.4399498078
  54
        -83.65966166
 N          5.1348905935       -2.8427740501        0.5699342947
 C          5.1972741585       -1.7178323608        0.3432477512
 C          5.3834237572       -0.3450782921        0.0790396332
 C          4.3812897689        0.5458639801       -0.1155594701
 C          2.9517143221        0.3648648100       -0.0839691264
 C          2.3130359319       -0.8506866611        0.1888444100
 C          0.9391789233       -0.9421795880        0.2034800656
 C          0.1430025936        0.1781857390       -0.0505228336
 C         -1.2980027499        0.1295078126       -0.0379653841
 N         -2.0844778879        1.1706573591       -0.2134070759
 C         -3.3623046410        0.7280792338       -0.1229273955
 C         -4.4770600033        1.6618388408       -0.2089332696
 C         -4.3568081771        2.7951957952       -1.0105221265
 C         -5.3958048392        3.7014816734       -1.1003014570
 C         -6.5641801005        3.4939902002       -0.3854429869
 C         -6.6829673930        2.3803492476        0.4301278159
 C         -5.6473323768        1.4701853780        0.5231261629
 C         -3.3636534345       -0.6462407308        0.1041692798
 C         -4.4245919794       -1.6309284062        0.2060991647
 C         -4.2857151537       -2.7365958064        1.0462448180
 C         -5.2886176526       -3.6838738268        1.1305134325
 C         -6.4418913776       -3.5463893184        0.3766606246
 C         -6.5861563483       -2.4550515962       -0.4658038228
 C         -5.5876493158       -1.5056099525       -0.5554797379
 N         -2.0417210184       -0.9957673701        0.1677043705
 C          0.7736676319        1.3973512990       -0.3218015996
 C          2.1440187477        1.4850152013       -0.3394259293
 C          6.8003835463        0.0551606529        0.0112781524
 C          7.7553735132       -0.8340521733       -0.4822758987
 C          9.0831695017       -0.4608109403       -0.5654345476
 C          9.4810095351        0.7991679522       -0.1491888705
 C          8.5423646300        1.6827576171        0.3581424737
 C          7.2128489869        1.3158181151        0.4407954099
 H          4.6888502510        1.5589930702       -0.3474489574
 H          2.8992094582       -1.7313436573        0.3933175802
 H          0.4878630060       -1.8995168003        0.4216721788
 H         -3.4389219180        2.9470529918       -1.5570364750
 H         -5.2958504860        4.5744207690       -1.7291749507
 H         -7.3777330058        4.2009484855       -0.4575660941
 H         -7.5867089684        2.2227506750        1.0010431279
 H         -5.7386698432        0.6129452953        1.1743143155
 H         -3.3991641545       -2.8422366363        1.6565481955
 H         -5.1705448006       -4.5313875009        1.7898510272
 H         -7.2249191314       -4.2865907579        0.4448425402
 H         -7.4813544735       -2.3465594582       -1.0600549372
 H         -5.6949324453       -0.6626742077       -1.2211599256
 H         -1.6980688699       -1.9341265621        0.2877424174
 H          0.1537364629        2.2586404428       -0.5127540255
 H          2.6139562808        2.4351571658       -0.5511987059
 H          7.4494098462       -1.8171312679       -0.8100426001
 H          9.8109315379       -1.1574212550       -0.9543831847
 H         10.5190497593        1.0895010566       -0.2136152100
 H          8.8481985070        2.6621742155        0.6958939545
 H          6.4948368097        2.0038199802        0.8632688523
  54
        -83.65953391
 N          5.0957047608       -2.7271031690        0.9036983833
 C          5.1689504349       -1.6462673427        0.5194677449
 C          5.3720506206       -0.3221410688        0.0759382282
 C          4.3810154529        0.5513807900       -0.2221231961
 C          2.9502401039        0.3792929596       -0.1716994127
 C          2.3140319742       -0.8464282912        0.0554878438
 C          0.9407709888       -0.9367433264        0.0917268116
 C          0.1431139370        0.1958695918       -0.0927623800
 C         -1.2972441844        0.1448249961       -0.0534545912
 N         -2.0894926941        1.1909336161       -0.1572566544
 C         -3.3643687337        0.7391161357       -0.0681182720
 C         -4.4828381005        1.6719145916       -0.0807167957
 C         -4.3766936428        2.8529599469       -0.8120078717
 C         -5.4182508084        3.7606161400       -0.8292211238
 C         -6.5750486898        3.5062825736       -0.1109615483
 C         -6.6799612432        2.3434038898        0.6347850874
 C         -5.6417889426        1.4316924607        0.6549874385
 C         -3.3576454068       -0.6455853483        0.0828413836
 C         -4.4129385212       -1.6398104483        0.1423193516
 C         -5.5835658375       -1.4787156917       -0.6006060212
 C         -6.5750926877       -2.4385760172       -0.5573238125
 C         -6.4164399629       -3.5751674575        0.2201413491
 C         -5.2561055988       -3.7473044943        0.9558310378
 C         -4.2597300073       -2.7902650855        0.9171553365
 N         -2.0339483012       -0.9928181585        0.1034521703
 C          0.7713460723        1.4241733759       -0.3252308245
 C          2.1415671204        1.5096858477       -0.3704135297
 C          6.7956024449        0.0434073835       -0.0375525810
 C          7.2334290860        1.3374572980        0.2377892734
 C          8.5702453122        1.6647096600        0.1135782432
 C          9.4902100756        0.7081257808       -0.2827358827
 C          9.0667071433       -0.5839995287       -0.5459226214
 C          7.7315028646       -0.9172881614       -0.4204706848
 H          4.6959827918        1.5352820506       -0.5507137093
 H          2.9017188140       -1.7381477785        0.1969885119
 H          0.4916069723       -1.9032312042        0.2699959063
 H         -3.4679340930        3.0402457990       -1.3627618593
 H         -5.3295811908        4.6707925056       -1.4047492187
 H         -7.3902475076        4.2148931453       -0.1256150406
 H         -7.5740148196        2.1492369132        1.2098084481
 H         -5.7206378864        0.5363542227        1.2547513790
 H         -5.7017573941       -0.5997967736       -1.2160161415
 H         -7.4758620065       -2.3026351956       -1.1373640809
 H         -7.1937039919       -4.3237957314        0.2518098255
 H         -5.1271250869       -4.6301332331        1.5648339183
 H         -3.3673953611       -2.9242420329        1.5132797168
 H         -1.6868751488       -1.9353319934        0.1677580155
 H          0.1499709845        2.2939171753       -0.4669282474
 H          2.6099206042        2.4669755789       -0.5520873158
 H          6.5300383650        2.0847958929        0.5758602778
 H          8.8971468725        2.6705494611        0.3349738913
 H         10.5340339115        0.9673274749       -0.3775350943
 H          9.7793400686       -1.3366293321       -0.8492203053
 H          7.4050056363       -1.9259566143       -0.6299920578
  54
        -83.65927963
 N          5.0218825760       -2.6490517436        1.0363719706
 C          5.1301079138       -1.5877217370        0.6086241546
 C          5.3669276463       -0.2851504900        0.1190729993
 C          4.3826807522        0.5851616110       -0.2064269793
 C          2.9512112218        0.4015405841       -0.1714969389
 C          2.3246128903       -0.8483680499       -0.1220270295
 C          0.9515015721       -0.9521176854       -0.0977932531
 C          0.1475279239        0.1906461401       -0.1149629431
 C         -1.2931308337        0.1311579674       -0.0835320904
 N         -2.0831555242        1.1821782416       -0.0263055975
 C         -3.3592753347        0.7253830490       -0.0179909087
 C         -4.4761074042        1.6601666395       -0.0120599905
 C         -5.6744874130        1.3747279066       -0.6631674658
 C         -6.7094724610        2.2905070447       -0.6477714053
 C         -6.5623081098        3.5017721120        0.0085714670
 C         -5.3666372607        3.8001723312        0.6413977079
 C         -4.3285613826        2.8886631391        0.6289432460
 C         -3.3550544631       -0.6664840956       -0.0638964102
 C         -4.4115787530       -1.6604188939       -0.0157154919
 C         -5.5487152739       -1.4522728772        0.7663557686
 C         -6.5452336864       -2.4066926350        0.8166679305
 C         -6.4245768342       -3.5841391751        0.0953820432
 C         -5.2961864578       -3.8038745164       -0.6764909256
 C         -4.2949182394       -2.8527088722       -0.7312666639
 N         -2.0323310998       -1.0151930788       -0.1161113566
 C          0.7674083285        1.4436114309       -0.1725054330
 C          2.1367889920        1.5435644531       -0.2123119756
 C          6.7955021232        0.0603379032        0.0162205138
 C          7.7294319326       -0.9348124134       -0.2718006965
 C          9.0709952239       -0.6255279627       -0.3907712256
 C          9.5041378861        0.6781121952       -0.2168572773
 C          8.5864413748        1.6702214622        0.0850874478
 C          7.2436273689        1.3665533018        0.2040326429
 H          4.6955773056        1.5702073443       -0.5310453495
 H          2.9193641906       -1.7474279237       -0.1211247312
 H          0.5080519357       -1.9371544401       -0.0622953623
 H         -5.7895331259        0.4388624415       -1.1902737419
 H         -7.6353143794        2.0601176261       -1.1550864003
 H         -7.3748677008        4.2135780847        0.0194730352
 H         -5.2443274208        4.7484026465        1.1447951798
 H         -3.3887531263        3.1103417341        1.1109291823
 H         -5.6374843715       -0.5403839564        1.3367600571
 H         -7.4197049870       -2.2343540197        1.4265841755
 H         -7.2065129804       -4.3274980491        0.1352604368
 H         -5.1980287572       -4.7179213172       -1.2438770714
 H         -3.4306353468       -3.0224326410       -1.3590627340
 H         -1.6837764220       -1.9593586512       -0.1305219548
 H          0.1398985159        2.3201755142       -0.1909603556
 H          2.5996223574        2.5193356598       -0.2592399114
 H          7.3964620790       -1.9523750663       -0.4124947384
 H          9.7809679697       -1.4056727341       -0.6187553168
 H         10.5524251761        0.9195007674       -0.3094640648
 H          8.9190850726        2.6871836453        0.2313586669
 H          6.5432188974        2.1469041468        0.4628227428
  54
        -83.65856873
 N          4.9893377977        2.9367966510       -0.3415483735
 C          5.0952391817        1.8014360204       -0.1980874483
 C          5.3485615140        0.4264736521       -0.0082138578
 C          4.3943836879       -0.5284018799        0.0997487940
 C          2.9575974070       -0.4133156774        0.0633409091
 C          2.2032545323       -1.5762231287        0.2766825817
 C          0.8275264303       -1.5530763509        0.2687060143
 C          0.1434409701       -0.3567709730        0.0364038598
 C         -1.2958815494       -0.2709055100        0.0168838487
 N         -1.9742913596        0.8233059524       -0.2536293370
 C         -3.2910046146        0.5128121493       -0.1702927394
 C         -4.3016764911        1.5429876788       -0.3652893410
 C         -5.5241091895        1.5102669462        0.3026820510
 C         -6.4521808707        2.5148751345        0.1034327070
 C         -6.1728016456        3.5657151609       -0.7551499154
 C         -4.9513680672        3.6150374696       -1.4070935747
 C         -4.0199979953        2.6136996313       -1.2120084488
 C         -3.4300884602       -0.8334198388        0.1578296316
 C         -4.5821299149       -1.7026076737        0.3138397335
 C         -4.5770869661       -2.7173265287        1.2716716572
 C         -5.6678437992       -3.5545325836        1.4120376104
 C         -6.7758325705       -3.3973521340        0.5966519920
 C         -6.7867774084       -2.3972595918       -0.3631684027
 C         -5.7007401343       -1.5568567088       -0.5079430898
 N         -2.1495032091       -1.3022878274        0.2821730292
 C          0.8889426559        0.8057035634       -0.1884401458
 C          2.2632107055        0.7808311315       -0.1737117375
 C          6.7851794739        0.1036637986        0.0621470935
 C          7.7008085463        0.8319700245       -0.6972875732
 C          9.0486481878        0.5312616024       -0.6478093172
 C          9.5054077246       -0.4923129781        0.1657429832
 C          8.6052519370       -1.2110968187        0.9348488780
 C          7.2559537744       -0.9165480828        0.8868258228
 H          4.7526585413       -1.5440012519        0.2244436854
 H          2.7155363209       -2.5114080491        0.4568509352
 H          0.2872810331       -2.4736273368        0.4399226410
 H         -5.7407646547        0.7040334164        0.9882193024
 H         -7.3976638762        2.4808425258        0.6255176925
 H         -6.9023848988        4.3473634448       -0.9090061638
 H         -4.7255205283        4.4385433262       -2.0690287749
 H         -3.0621301061        2.6413974222       -1.7078243652
 H         -3.7258335610       -2.8334591714        1.9287116556
 H         -5.6543425856       -4.3304988229        2.1635814440
 H         -7.6273591428       -4.0516840393        0.7083670346
 H         -7.6463680298       -2.2751611786       -1.0054404864
 H         -5.7048069846       -0.7841260616       -1.2617573007
 H         -1.9042193152       -2.2557168708        0.4911771415
 H          0.3527139457        1.7231121697       -0.3702953266
 H          2.8087064472        1.6927629882       -0.3497453506
 H          7.3484683248        1.6291177409       -1.3357986280
 H          9.7454516234        1.0996790620       -1.2456550585
 H         10.5591965028       -0.7241044772        0.2068464387
 H          8.9573323950       -2.0012496701        1.5819248498
 H          6.5670510410       -1.4659381807        1.5119134018
