70
 energy: -112.112935693498 gnorm: 0.000129383874 xtb: 6.7.1 (edcfbbe)
C           -7.57295281083091        0.21619616370378       -1.32589099348742
C           -6.71447284884747       -0.01287365078635       -0.06844575209757
C           -7.61517119750898       -0.25858734057487        1.15588633489454
C           -5.84978607400455       -1.23807466400597       -0.29310304511934
C           -6.45704623999552       -2.46031481508404       -0.54963650384088
C           -5.72595813856774       -3.60605303474171       -0.79978567641179
C           -4.34502492534135       -3.53407644349576       -0.81784289002399
C           -3.71630039714385       -2.33328823863586       -0.56479709436817
C           -4.45280684428380       -1.18043614057548       -0.27615819850983
N           -3.79259739307730        0.01475145550905       -0.01349085261031
C           -2.37969097355778        0.02622023658843        0.01415589906689
C           -1.66341857593217        0.68353117769733       -0.98206076096978
C           -0.28435674678295        0.69621600217865       -0.95342711557098
C            0.40307357010664        0.03695258083243        0.06324717440100
C            1.87039188031497        0.02872729457109        0.08570677926642
C            2.60691283914473        1.21957703543407        0.00855096262518
C            1.92716847885569        2.45376239814753       -0.07687994071733
N            1.36327146239595        3.45067397189735       -0.14460115216710
C            4.01575185763761        1.14800306878710        0.00083464820383
C            4.86427179614363        2.33676697522948       -0.10919078781128
C            4.59660795795236        3.52976952366742        0.55862816149009
C            5.45771559635646        4.59895582999242        0.38364047477525
C            6.56229489560524        4.43293479902596       -0.43898496251842
N            6.83233858083322        3.30034392275275       -1.06664050991455
C            6.01194564135134        2.28480205535969       -0.90657572070082
N            4.65205533922725       -0.01044931541648        0.06449809644784
C            3.98560910859510       -1.14884652212386        0.17399710454984
C            4.79795098733858       -2.36355651572967        0.25552465891061
C            4.45529251116274       -3.45486123516365        1.05142326278923
C            5.28466166759237       -4.56244046707382        1.05724109161810
C            6.43425469800014       -4.53338942747686        0.28111491410249
N            6.77539440820898       -3.49751090664502       -0.46740425536552
C            5.98453502651615       -2.44663531778765       -0.48016147582106
C            2.57562712176766       -1.17999274616780        0.17790614706950
C            1.86344206788008       -2.39876237214537        0.15069905377754
N            1.27560952380625       -3.38171647526836        0.08353232340537
C           -0.31553313540956       -0.62592263174398        1.05610978287991
C           -1.69452856592276       -0.62346610391470        1.03703104431243
C           -4.48444217196659        1.19718905459470        0.22194981272874
C           -3.78099705276476        2.36415657248841        0.53522828126470
C           -4.44116930738570        3.55292753949857        0.76372759816402
C           -5.82167216003473        3.59847315466691        0.69598650799838
C           -6.52125732959987        2.43890924224633        0.42061153728557
C           -5.88202333675808        1.22836696820380        0.18767466813198
H           -8.20155013452323       -0.64604944566363       -1.52994863134458
H           -6.92920756981604        0.38297603581726       -2.18760249126926
H           -8.21521977024178        1.08402997854339       -1.20473026573247
H           -8.23668196056289       -1.13770372661163        1.01031634183236
H           -8.26649396169709        0.59194537713738        1.33650401468839
H           -7.00134662109183       -0.41471912136739        2.04113339195220
H           -7.53456072464368       -2.52483233111011       -0.55853425160903
H           -6.23047934779096       -4.54075562812606       -0.99098621046314
H           -3.75150837845048       -4.40984495841249       -1.03257773808535
H           -2.63877060413541       -2.28961673795741       -0.59915678092178
H           -2.19603617783286        1.18313983323271       -1.77693014431382
H            0.26343479938164        1.19298532621956       -1.74047517949802
H            3.74837135064967        3.61428915348453        1.22174727786526
H            5.28012359734635        5.53643520713637        0.88621643533942
H            7.26946812668096        5.23570328299614       -0.59890276902809
H            6.26059020245498        1.37776372080619       -1.44009889436037
H            3.57259286367675       -3.43081401403212        1.67358409613194
H            5.04896837396298       -5.42380899144956        1.66182580189648
H            7.11949059011176       -5.37015246778893        0.26103320829213
H            6.29068031931320       -1.62168857741410       -1.10838273403643
H            0.20810279718156       -1.12083444854925        1.86096367110975
H           -2.25153704102124       -1.12860965932264        1.81148190127415
H           -2.70465698329210        2.34049428272899        0.60724498764246
H           -3.87287491378901        4.44041448796373        0.99796329272036
H           -6.35047837196875        4.52349647372984        0.86761613424937
H           -7.59939518873033        2.48301374462242        0.39001598125557
