70
 energy: -112.052461838272 gnorm: 0.000109518752 xtb: 6.7.1 (edcfbbe)
C           -7.59542926054422        0.26249983251322       -1.27559335193464
C           -6.72651272856151        0.00942939969779       -0.02893712136421
C           -7.62012440336573       -0.24065047813669        1.20074946019734
C           -5.87984270949587       -1.22220134667751       -0.27397469511210
C           -6.49548668947136       -2.43941552729438       -0.53139614122439
C           -5.76860030547944       -3.58918731807195       -0.77934503540240
C           -4.38383094018768       -3.53330608355958       -0.78461718335813
C           -3.74460809509421       -2.34036272667496       -0.53206251078473
C           -4.47826548990482       -1.17703527796026       -0.26183790254304
N           -3.81239190212426        0.00452380543731       -0.00119643708585
C           -2.38855835376821        0.00211274403428        0.01240060980627
C           -1.68600678042155        0.50133583407208       -1.07642765453808
C           -0.30543433552941        0.50427041880435       -1.05829198582033
C            0.38125983576237       -0.00275156153228        0.03875706794240
C            1.85785718801973       -0.00545275132335        0.05260914308888
C            2.53989217972018        1.21272980663055        0.03315222253733
C            1.78075155588315        2.37996798477918        0.09135207675044
N            1.07538577305432        3.29163432258305        0.16291770898570
C            3.99021946913849        1.16381649545426        0.02376458190014
C            4.84215563370108        2.32532978434573       -0.03172357845903
C            4.42884634950828        3.62096905317204       -0.37662741295478
C            5.34917271378246        4.64999959215404       -0.39889747111177
C            6.67349622899757        4.37578640756128       -0.08273684636254
N            7.06920257713584        3.15304216615517        0.23528772817651
C            6.21243197205754        2.17088181563437        0.26386248061598
N            4.57804667357760       -0.01054323010068        0.07786931588316
C            3.98493464758088       -1.18267961504311        0.12100563255038
C            4.83129791261066       -2.34737593034537        0.19259385998051
C            4.40665301033829       -3.64129425037516        0.53009480847600
C            5.32251802940576       -4.67376338018049        0.57021075532718
C            6.65361227263564       -4.40465227689250        0.27913667691432
N            7.05985089294948       -3.18359463441187       -0.03207196977276
C            6.20744070810532       -2.19825972681618       -0.07732443405001
C            2.53485605195973       -1.22617103216975        0.08461978456621
C            1.77261979386447       -2.39055195748573        0.01181510627424
N            1.06543733758477       -3.29964077025982       -0.07350703625629
C           -0.32794418165327       -0.50726131538892        1.12255625977494
C           -1.70860499180232       -0.49946804329726        1.11440729938241
C           -4.47912694503737        1.18829279027296        0.24690371569968
C           -3.74682919314076        2.34911321394093        0.53122727636572
C           -4.38672309631124        3.54414826541424        0.77191063785468
C           -5.77094728585803        3.60468543423167        0.74035090313798
C           -6.49684806511454        2.45741999097368        0.47830957660579
C           -5.88052102362775        1.23817320928300        0.23239671093623
H           -8.23164318304382       -0.59277499686197       -1.48400569597295
H           -6.95964801633810        0.43698312737084       -2.14145258175989
H           -8.23011427610819        1.13258334943879       -1.13480401863464
H           -8.25521746269665       -1.10833993938152        1.04758288635713
H           -8.25705150460111        0.61692939548232        1.39715214389898
H           -7.00171776414666       -0.41766103299276        2.07859541017597
H           -7.57303835350438       -2.49807719354623       -0.54126438194353
H           -6.27934998297318       -4.51965729254592       -0.97323076422777
H           -3.80013722979775       -4.41778426236181       -0.98680512741854
H           -2.66692833197810       -2.30316037364792       -0.54490228216017
H           -2.22492263525446        0.88808486625705       -1.92826968886023
H            0.24352481359726        0.89152685807521       -1.90349214513328
H            3.40057083577012        3.81809057875010       -0.63478597699936
H            5.04825439269848        5.65198675052349       -0.66243411074214
H            7.43519663733796        5.14170017655768       -0.08420030101033
H            6.58632587403795        1.19360598137976        0.53898933856516
H            3.37293820619801       -3.83444893477936        0.76879245538636
H            5.01286169788720       -5.67448490795320        0.82839567089717
H            7.41230915844124       -5.17337027307910        0.29555780830493
H            6.59013279615188       -1.22257979528662       -0.34597029731805
H            0.20342814988511       -0.89641855283374        1.97806286952485
H           -2.26499965724588       -0.88427846653587        1.95582928179420
H           -2.66971668563955        2.30828943143552        0.56447152639528
H           -3.80400885133537        4.42661780932760        0.98538449338735
H           -6.28215921602352        4.53682507822055        0.92476716264091
H           -7.57418881496885        2.51972243383351        0.46765291155480
