  72
       -102.21429442
 C         -0.8459039367        5.3380364890       -1.2841948356
 C         -1.0716328084        3.8686624174       -1.1047103320
 C         -1.9668252392        3.3834569298       -0.1633041342
 C         -2.1468001659        2.0251065797        0.0342007510
 C         -3.1591964780        1.5692090844        1.0434201907
 C         -1.3923731331        1.0929581312       -0.7017185515
 B         -1.4279516751       -0.4218560681       -0.3101776513
 C         -0.0734661627       -1.2012758719       -0.0838001105
 C         -0.0683455991       -2.5754124972       -0.3564661657
 C          1.0746495931       -3.3496461638       -0.3147869454
 C          2.2697274383       -2.7438302259        0.0321164620
 Br         3.8771139181       -3.7813122067        0.1067706125
 C          2.3207783594       -1.3974856009        0.3305175195
 C          1.1632056150       -0.6248389549        0.2670319396
 N          1.3106416998        0.7430305446        0.5350238959
 C          0.6629604024        1.4844033929        1.4988448920
 C         -0.1751683869        1.0607198183        2.5169067760
 C         -0.6610066203        2.0129735609        3.3925343335
 C         -0.3190367801        3.3569575123        3.2669304580
 C          0.5486013227        3.7782676999        2.2790469416
 C          1.0583835273        2.8369574783        1.3963545722
 C          2.0078563157        2.9027226167        0.3228267527
 C          2.7343909759        3.9388459540       -0.2472033936
 C          3.5954407368        3.6505865693       -1.2874859097
 C          3.7374629722        2.3470488876       -1.7573471689
 C          3.0229322378        1.2997798286       -1.2065677555
 C          2.1537739068        1.5840916641       -0.1635256130
 C         -2.7682725713       -1.2366772293       -0.2246961161
 C         -3.6397687077       -1.2489764301       -1.3314230350
 C         -3.2968382232       -0.4954342880       -2.5829254864
 C         -4.8092191033       -1.9877281224       -1.3033497229
 C         -5.1767452803       -2.7287092884       -0.1878039093
 C         -6.4576749657       -3.5046488637       -0.1773880028
 C         -4.3257955769       -2.7180825960        0.9031486637
 C         -3.1385897649       -1.9977934593        0.8950694975
 C         -2.3083100886       -2.0219059428        2.1463067189
 C         -0.5619091027        1.5876794854       -1.7203324710
 C          0.1097592178        0.6734922468       -2.7049811296
 C         -0.4071427446        2.9521583099       -1.9036501961
 H         -1.2355772639        5.8969282433       -0.4369643632
 H          0.2177022476        5.5448788134       -1.3872348045
 H         -1.3442139144        5.6918680914       -2.1873276921
 H         -2.5287078123        4.0825451073        0.4401349871
 H         -3.5779874853        2.4205985923        1.5748906727
 H         -2.7115687558        0.8961989902        1.7658941156
 H         -3.9678761943        1.0372949411        0.5451587927
 H         -1.0023945748       -3.0461245779       -0.6226775245
 H          1.0399395050       -4.4030811714       -0.5438998771
 H          3.2530251873       -0.9338743328        0.6131047845
 H         -0.4303758168        0.0198000539        2.6280082097
 H         -1.3173754895        1.7092321829        4.1953743560
 H         -0.7262866145        4.0721973266        3.9658793761
 H          0.8356789896        4.8157357941        2.1990178918
 H          2.6264321525        4.9484259454        0.1198068042
 H          4.1712408999        4.4412451681       -1.7449212090
 H          4.4215934863        2.1500360865       -2.5698039314
 H          3.1403559514        0.2947716005       -1.5827926883
 H         -2.3776177653       -0.8825430278       -3.0174408683
 H         -3.1424640719        0.5569502042       -2.3620332488
 H         -4.0926571663       -0.5896487649       -3.3180868923
 H         -5.4555636954       -1.9898526340       -2.1702034780
 H         -6.5276146014       -4.1301135761        0.7090256286
 H         -7.3091021593       -2.8242165166       -0.1879681428
 H         -6.5283525168       -4.1376268573       -1.0606150691
 H         -4.5880412702       -3.2868839562        1.7845401726
 H         -2.4695718701       -2.9495369464        2.6923440707
 H         -1.2523261288       -1.9275400873        1.9186826898
 H         -2.5984420634       -1.1989183207        2.8012069918
 H         -0.4555975535        0.6755266723       -3.6385791379
 H          1.1134851305        1.0272022971       -2.9275382346
 H          0.1582069550       -0.3477311417       -2.3422161295
 H          0.2601203944        3.3074347089       -2.6764778589
