64
 energy: -93.743447324947 gnorm: 0.000160931436 xtb: 6.7.1 (edcfbbe)
C            1.56614312243273       -4.22563456408323       -1.53604479371995
C            0.73711641886659       -3.99833331911739       -0.26414495101770
C            1.53314828527811       -4.46210731780999        0.96422955569269
C           -0.52829630822647       -4.85504703206438       -0.36029200787402
C            0.43744645401596       -2.51306807712345       -0.12779530317450
C            1.49648897576268       -1.62567742666300       -0.02466277316937
C            1.28501021249256       -0.24829751081979        0.04383830486389
C           -0.02388735757733        0.27430602203781        0.04557536691566
C           -1.09267137163805       -0.65051669837764        0.02974963047595
C           -0.85851509546151       -2.01291810757483       -0.10480234387972
N           -2.38073021439843       -0.13627982254063        0.08955868045270
C           -3.60133921938511       -0.77631347990726        0.28153474918280
C           -3.90738568053010       -2.03911408663196        0.76983864108145
C           -5.23892185417218       -2.40072085701765        0.87994103110857
C           -6.26414717581425       -1.52879035562487        0.53289757183775
C           -5.97608434721480       -0.24670107470399        0.10742302706384
C           -4.64831611093043        0.13574476302413       -0.00387347415998
C           -4.02831776417024        1.39240730605792       -0.32537354020217
C           -4.50339640377712        2.64414459755857       -0.67785048329872
C           -3.58008673829977        3.65562200219796       -0.89609090281616
C           -2.21928872716780        3.44372692112921       -0.72892469214817
C           -1.69200613014320        2.20463396783857       -0.35022787510542
C           -2.63933624158720        1.18579218788318       -0.20721573521733
B           -0.23794964618591        1.78233380054625       -0.03774924201947
C            1.02292616973365        2.63445780558722        0.18407635425412
C            1.01713664614745        4.02087669146327        0.38503478274898
C            2.17137335195693        4.74754969790663        0.56530008619078
C            3.39687251323152        4.09176835649463        0.54908023811788
C            3.44982207641152        2.72759097734601        0.38391733037629
C            2.27486818700698        1.97978324304296        0.21726537724834
N            2.36805761928919        0.60697220367033        0.08847501140540
C            3.66928302712309        0.02617444827799        0.01587858104508
C            4.30424053432832       -0.41241964093693        1.17148337650070
C            5.56066087718784       -0.98572257330674        1.09021961921696
C            6.18470667857439       -1.12226321712933       -0.13907278323218
C            5.55150190541615       -0.68420356542027       -1.29021357927151
C            4.29427449425500       -0.11044412898570       -1.21645173235337
H            2.51065161642385       -3.68973278248426       -1.49430976822352
H            1.01628232059495       -3.87980872235032       -2.40893351290870
H            1.78023579222335       -5.28520406904535       -1.65989758495270
H            2.48273443675069       -3.93979193475906        1.04258043343215
H            1.73646638223462       -5.52892631282189        0.89779462350321
H            0.96472607472367       -4.27474761067331        1.87294335643426
H           -0.24932863810939       -5.90277653037655       -0.45401613704229
H           -1.14034275884858       -4.75147072671717        0.53277639432961
H           -1.11966667197638       -4.58739546984349       -1.23287818098449
H            2.50606106287302       -2.00273128049048       -0.02246126906326
H           -1.69176815640724       -2.67494255364586       -0.24115206497742
H           -3.14648117093950       -2.72514627867910        1.10384136504008
H           -5.48429430581849       -3.38308424076810        1.25634708860132
H           -7.29092551187708       -1.85014560837277        0.62492959905430
H           -6.76515177823392        0.45391681520233       -0.12106630666706
H           -5.56232534818369        2.82635433369864       -0.78559110202821
H           -3.92935217698375        4.63520085511632       -1.19053493909004
H           -1.54536284059759        4.26674791219937       -0.91301676929159
H            0.06568020521814        4.52812393840252        0.41861834580869
H            2.13055886201414        5.81588943105855        0.71869957006453
H            4.31328888894491        4.64910349704106        0.67980461208033
H            4.40927873568512        2.23208839976424        0.39592810968058
H            3.80604047294738       -0.30161778348021        2.12327681901226
H            6.05361396785677       -1.32647007319582        1.98845532725815
H            7.16513285534611       -1.57036326793254       -0.19939031403589
H            6.03680649914215       -0.79052759286276       -2.24892736155468
H            3.78890683231293        0.23345909635764       -2.10668992250655
