  64
        -93.65633455
 C          1.5680987022       -4.5019844274       -0.7009493854
 C          0.7431658048       -3.9827139869        0.4860308384
 C          1.5469887622       -4.1428641159        1.7846279962
 C         -0.5222180743       -4.8371934128        0.5988040118
 C          0.4340752180       -2.5111518804        0.2694534983
 C          1.4943858310       -1.6066432904        0.1437677961
 C          1.2768907987       -0.2329858375        0.0165173247
 C         -0.0282910038        0.2988719345        0.0104057952
 C         -1.0871194042       -0.6396340302        0.0158423695
 C         -0.8548761691       -2.0072838942        0.2026273258
 N         -2.3745014238       -0.1402436553       -0.0828590245
 C         -3.5647586092       -0.7899292407       -0.3444458751
 C         -3.8269726900       -2.0534281666       -0.8622399221
 C         -5.1434948008       -2.4334603051       -1.0407027105
 C         -6.1981432726       -1.5708262694       -0.7330209634
 C         -5.9539213371       -0.2887646729       -0.2826441448
 C         -4.6398275708        0.1191631129       -0.1002718146
 C         -4.0480606823        1.3713707628        0.2596540008
 C         -4.5533123035        2.6262777232        0.5994780492
 C         -3.6362029314        3.6382855598        0.8723455794
 C         -2.2709479888        3.4422479844        0.7758703633
 C         -1.7082832211        2.2037763200        0.3845684368
 C         -2.6550156041        1.1813198949        0.2094024490
 B         -0.2522179524        1.8010173299        0.1037989445
 C          1.0117590437        2.6547615440       -0.0607723496
 C          1.0233808321        4.0531077188       -0.1870548462
 C          2.1817981679        4.7746907755       -0.3775135489
 C          3.4026831327        4.1142252041       -0.4683750904
 C          3.4432047030        2.7367209681       -0.3696708656
 C          2.2727968029        1.9991624960       -0.1602747729
 N          2.3620046543        0.6200519553       -0.0720262994
 C          3.6559600075        0.0284077012       -0.1282740118
 C          4.4609893238        0.0151508448        1.0052111108
 C          5.7100989445       -0.5764830275        0.9536556489
 C          6.1593842286       -1.1552168572       -0.2225382704
 C          5.3565831150       -1.1410645189       -1.3520628527
 C          4.1062138790       -0.5515543397       -1.3090202060
 H          1.0172753539       -4.3672806226       -1.6294374159
 H          1.7787832596       -5.5617334377       -0.5754355793
 H          2.5150435614       -3.9757235920       -0.7868136685
 H          2.4901494297       -3.6051106650        1.7360727272
 H          1.7636172735       -5.1936867404        1.9642744425
 H          0.9780042844       -3.7580643072        2.6282976856
 H         -0.2438849761       -5.8782733431        0.7494181852
 H         -1.1310269816       -4.5284537530        1.4455281647
 H         -1.1170606450       -4.7787705775       -0.3099369192
 H          2.5049079514       -1.9774205072        0.1999161960
 H         -1.6981723144       -2.6555284468        0.3568208728
 H         -3.0356651420       -2.7187728771       -1.1699185295
 H         -5.3605853874       -3.4118168249       -1.4426084445
 H         -7.2140877411       -1.9064618955       -0.8796074106
 H         -6.7669074899        0.3938172855       -0.0856450432
 H         -5.6156912757        2.8016069509        0.6634986540
 H         -4.0066298635        4.6132006687        1.1593522226
 H         -1.6131970245        4.2645285304        1.0094596632
 H          0.0808027051        4.5748013235       -0.1536049126
 H          2.1447768568        5.8510786321       -0.4657692026
 H          4.3163526394        4.6675815562       -0.6245415117
 H          4.3945527314        2.2343166615       -0.4611504249
 H          4.0992767528        0.4691707507        1.9158442060
 H          6.3332807933       -0.5879985832        1.8353227408
 H          7.1343418136       -1.6169816017       -0.2589058616
 H          5.7053286476       -1.5899032344       -2.2701267017
 H          3.4704725983       -0.5358016143       -2.1818259374
