64
 energy: -93.658990157152 gnorm: 0.000071057082 xtb: 6.7.1 (edcfbbe)
C            1.58162850598743       -4.49494638237027       -0.70962205581201
C            0.74435348521941       -3.98366545761036        0.47212877937623
C            1.53608185721711       -4.14896466732029        1.77740988025601
C           -0.52020103890851       -4.84162797178702        0.56639009661471
C            0.43450043795348       -2.51124649919602        0.26186191263721
C            1.49445089028959       -1.60632078366516        0.13720514201446
C            1.27584996955753       -0.23147806916665        0.01402998824218
C           -0.02924474453779        0.29913461628909        0.00356732482240
C           -1.08788447711973       -0.63871826128580        0.01408207390883
C           -0.85411591107135       -2.00702211426988        0.20246624682137
N           -2.37583027290171       -0.14114028817472       -0.08228604616352
C           -3.56758727623684       -0.79306443101892       -0.32834058910496
C           -3.83515229953049       -2.06255325654792       -0.83001474904680
C           -5.15264044731429       -2.44476991353260       -0.99099464859099
C           -6.20510096574041       -1.57899281844884       -0.68258552689890
C           -5.95709266628429       -0.29186089399965       -0.25106801816464
C           -4.64106549558502        0.11877606509506       -0.08621052593541
C           -4.04757998015050        1.37456957891290        0.25519979355677
C           -4.55294044827189        2.63451702271941        0.58012652922829
C           -3.63521935100364        3.65077866179807        0.83453207458626
C           -2.27097672578089        3.45334627310786        0.73613009775134
C           -1.70858250879568        2.20879149680176        0.35886893951982
C           -2.65573990998364        1.18478867433469        0.19936381914873
B           -0.25299475986384        1.80352763782369        0.08337548774778
C            1.01235566887452        2.65578057364618       -0.08285362103750
C            1.02557605710230        4.05288583894297       -0.22150570270990
C            2.18624038107241        4.77278314665160       -0.40353799685156
C            3.40836531113558        4.11203107524400       -0.47076285720748
C            3.44731110396666        2.73535559371085       -0.36121101864967
C            2.27375471603470        1.99996208078944       -0.16483138067549
N            2.36088570737771        0.62037374979380       -0.06939750314555
C            3.65597735473250        0.02852243451597       -0.11488114724591
C            4.44022683827570       -0.00898146760820        1.03190832565862
C            5.69041153038729       -0.59968855897102        0.98961910409838
C            6.16012834107334       -1.15313932659110       -0.19044415168836
C            5.37765524671573       -1.11469941100633       -1.33324509882624
C            4.12653852170021       -0.52578510449179       -1.29958317856115
H            1.03892609357524       -4.35748249552405       -1.64266933720959
H            1.79394296477485       -5.55488820172891       -0.58709519358932
H            2.52834490191143       -3.96648617851038       -0.78484791700897
H            2.47986444422959       -3.61119628893003        1.73903272961392
H            1.75055570500608       -5.20054386064482        1.95561674551386
H            0.95961690930983       -3.76668615757134        2.61727231657544
H           -0.24124270329122       -5.88439206268287        0.70334434655046
H           -1.13382115946735       -4.54608691968275        1.41426461068778
H           -1.11037223484129       -4.77062431818236       -0.34449617418517
H            2.50523031108303       -1.97676236969618        0.19069784036920
H           -1.69632104915872       -2.65506781225948        0.36257510646437
H           -3.04722346709281       -2.73130264859956       -1.13875324813810
H           -5.37343669431165       -3.42769619080318       -1.37962045468553
H           -7.22218368708429       -1.91736282525670       -0.81436113635311
H           -6.76819399837725        0.39314901546938       -0.05462757462917
H           -5.61520177270722        2.80974644889359        0.64599848620283
H           -4.00485805545660        4.62954922605919        1.10905511718730
H           -1.61202473221729        4.27816821379189        0.95691083304692
H            0.08271192200922        4.57486058184147       -0.20447229924415
H            2.15035254741133        5.84833235292700       -0.50203628272798
H            4.32429742095634        4.66436423325505       -0.61714952715542
H            4.39997398144220        2.23226701514986       -0.43380606198391
H            4.06244615450130        0.42547267846729        1.94545183284283
H            6.29814217933033       -0.62988550402093        1.88144103600740
H            7.13573872822209       -1.61410290483311       -0.21966270011740
H            5.74249666314704       -1.54395821856485       -2.25428036441208
H            3.50612089471374       -0.49119803441981       -2.18284515766832
