64
 energy: -93.658986061810 gnorm: 0.000115679110 xtb: 6.7.1 (edcfbbe)
C            1.52237139934983       -4.21137144253735       -1.63573194449363
C            0.72982121832342       -3.99981225600278       -0.33771514770760
C            1.56355558594845       -4.47503850001854        0.86149290739588
C           -0.53806121925858       -4.85547735824421       -0.40503506196744
C            0.42559842342182       -2.52013217192199       -0.17555318725585
C            1.48883420041651       -1.61575573032544       -0.07796698198457
C            1.27515336460803       -0.23725956918778        0.00760774993403
C           -0.02827234465857        0.29764089477078        0.00341781127070
C           -1.09069798570991       -0.63581259983006        0.01392656610601
C           -0.86130511709363       -2.00981426636752       -0.13391797579650
N           -2.37745198284943       -0.13094852401570        0.08779683395689
C           -3.57403172796529       -0.77186813955712        0.33957143360889
C           -3.85131673105929       -2.02563949494990        0.87441039912434
C           -5.17172819238708       -2.39953929028214        1.03088283593546
C           -6.21791527851055       -1.54014347989442        0.68545404805280
C           -5.96097747884324       -0.26628499056903        0.22101162620063
C           -4.64187620453682        0.13601677803266        0.06017297572292
C           -4.04058170818292        1.38004867112310       -0.30947846246015
C           -4.53786206846018        2.63221976617990       -0.67471130883661
C           -3.61391823013380        3.63835487646132       -0.94672619409752
C           -2.25154984235897        3.43948176739864       -0.82814329486139
C           -1.69788513733699        2.20352091126043       -0.41169956843088
C           -2.65015639789722        1.18749423437885       -0.23356988429450
B           -0.24639725786392        1.80036000158688       -0.11451185118441
C            1.02004323256923        2.65241179413049        0.04137616273851
C            1.03555831554839        4.05154299961651        0.15730827077147
C            2.19745328631552        4.77166018050391        0.33022614505925
C            3.41788804735100        4.10921053057261        0.41107455668912
C            3.45415521195209        2.73081751848601        0.32443543794468
C            2.27936165612070        1.99489009839028        0.13770231898348
N            2.36288956068868        0.61340323342495        0.06661265965225
C            3.65850730998260        0.02243282683576        0.10306526351718
C            4.14496468957849       -0.52169570536810        1.28612000223862
C            5.39837601210436       -1.10625417428749        1.30911830544849
C            6.16759653638325       -1.15021635126052        0.15749215065579
C            5.68191280244346       -0.60733424111483       -1.02098947116905
C            4.42922490296540       -0.02135282079269       -1.05268373714668
H            2.46875213690259       -3.67725869846302       -1.61362391178371
H            0.94883472643701       -3.85396425773712       -2.48844026105441
H            1.73189319586894       -5.26924837731118       -1.77917700067533
H            2.51235852253673       -3.94825270298958        0.92032598573134
H            1.77158500523994       -5.53933186235339        0.77464166744943
H            1.02025528564725       -4.30430725466820        1.78868281929414
H           -0.26307747817316       -5.90333985140070       -0.50649604438363
H           -1.12909664787519       -4.75164888593890        0.50214560577708
H           -1.14944998315434       -4.58621783105081       -1.26321907523760
H            2.49819534459500       -1.99122719267715       -0.12188610707748
H           -1.70524480061684       -2.65948602492713       -0.27704633627696
H           -3.06902543655863       -2.68719414666597        1.21169568261255
H           -5.40008477048529       -3.37031231397495        1.44487140149631
H           -7.23746341903049       -1.87214117761091        0.81431979919587
H           -6.76763360263839        0.41506869738135       -0.00431193531540
H           -5.59869943259354        2.80902864160308       -0.75711148045764
H           -3.97736864614789        4.61035136271957       -1.25189123785351
H           -1.58677685866826        4.25557302201994       -1.06369926031057
H            0.09356710877051        4.57479942112395        0.12947680623807
H            2.16397349940610        5.84875944228841        0.41111430048261
H            4.33469737468546        4.66181088789163        0.55089295381800
H            4.40549731650149        2.22702928014678        0.40869095191335
H            3.53520947389182       -0.48240058927407        2.17661239130837
H            5.77569483177877       -1.52743453766023        2.22885873917080
H            7.14538310673345       -1.60697895759574        0.17875496297004
H            6.27921627780414       -0.64162539620464       -1.91965876797841
H            4.03925149535289        0.40544312248789       -1.96469860078674
