94
 energy: -157.734653648281 gnorm: 0.000057596165 xtb: 6.7.1 (edcfbbe)
C            9.55985012909636        1.90812593410064       -1.36100880587698
C            9.69281529221525        2.98525578678102       -0.49682127518356
N            8.77306254540216        3.30967441464005        0.39846564788785
C            7.68267882220501        2.57001278083672        0.47017422794516
C            7.43811240044929        1.45779188376237       -0.33876558483059
C            6.19195168522432        0.69209253732401       -0.21339944560663
C            4.98392763724020        1.37896663390711       -0.18571282658381
C            3.76190995449481        0.71236698232700       -0.11942503120438
N            2.59905879307601        1.37284610888909       -0.09273254825141
C            1.44859160435222        0.70691558612121       -0.02838213604142
C            0.20764389999014        1.41556934419650        0.01833179908514
C            0.21826897438387        2.82026870851116       -0.02438706762541
C           -0.94485973132512        3.53987168300476        0.00345052643492
C           -2.16976279912373        2.86065676288759        0.09655233282755
N           -3.37888708798792        3.59963775684343        0.11974256993506
C           -4.28523906360040        3.51451654499855       -0.93362253394677
C           -4.08396422565568        2.67805304635338       -2.02840664386368
C           -5.01276263680359        2.61776685899007       -3.05351466507181
C           -6.15454182952453        3.39770308739988       -3.01306706168963
C           -6.36019856003299        4.25493332419901       -1.94383917533906
C           -5.43620824845457        4.31951585829765       -0.91493807825295
O           -5.69407484608711        5.20681298878268        0.09792385948002
C           -4.79990235949326        5.26653571709348        1.13500555890024
C           -5.08416878471129        6.14601363697965        2.16538461109416
C           -4.23481715407210        6.23752317518931        3.25683896835218
C           -3.11012255932429        5.43412995897910        3.31847625000140
C           -2.81837632478902        4.55438815521454        2.28993881467450
C           -3.64485942682014        4.46913246901444        1.17277766293862
C           -2.20144547624610        1.48383664183871        0.15523569644377
C           -1.02560753975019        0.72227242594510        0.10203954793570
C           -1.02792165914651       -0.71931394092820        0.11308033059709
C           -2.20710767762288       -1.47594324523065        0.16107062938085
C           -2.17984403173752       -2.85364144740194        0.12339017704286
N           -3.39317504002643       -3.58612948359590        0.12844095866842
C           -4.27255793044412       -3.50919410217914       -0.94835245848580
C           -4.03683725159346       -2.69111522577741       -2.05017467188277
C           -4.93950999832105       -2.63811557763253       -3.09872278649033
C           -6.08883105592089       -3.40753351459968       -3.07518463920459
C           -6.32809738203708       -4.24731277717248       -1.99913362846744
C           -5.43042015146095       -4.30440777898660       -0.94673565716458
O           -5.72066671436361       -5.17477477311140        0.07203250061180
C           -4.85009578277780       -5.23048915742274        1.12921692380847
C           -5.16450723719925       -6.09641816187093        2.16230047304838
C           -4.33994875795941       -6.18356631212425        3.27294808734266
C           -3.20997654196230       -5.38906177078954        3.35090052893481
C           -2.88832645878967       -4.52257199062296        2.32002557728278
C           -3.68945459734884       -4.44218014184623        1.18421212671533
C           -0.95608626378399       -3.53859657599156        0.06341972571906
C            0.20987341861583       -2.82332858234718        0.03888107232109
C            0.20370432990521       -1.41799371064349        0.05275541718371
C            1.44693183131826       -0.71415221375407       -0.00568123080984
N            2.59622760169296       -1.38420360659952       -0.04443516919399
C            3.76038468818734       -0.72732956373669       -0.09202832002492
C            4.98198799791244       -1.39773192180682       -0.11359072933815
C            6.19122728294505       -0.71432128300844       -0.16195076600804
C            7.43952256894293       -1.48474508758129       -0.10556544232642
C            8.46203956014895       -1.17178294254616        0.79080905450423
C            9.60667158307416       -1.94831101462728        0.80931360728323
C            9.69244057790314       -3.02160356631330       -0.06561473016693
N            8.72830553863376       -3.33832890859991       -0.91577114849752
C            7.63871062237216       -2.59413781557983       -0.93042531696343
C            8.41457873471477        1.13631357333367       -1.28237345912931
H           10.33035725380067        1.68346191954765       -2.08236455880027
H           10.56783167186902        3.62166422763203       -0.51813463295861
H            6.96595209460091        2.86582136948500        1.22658747805236
H            4.97275633832149        2.45736674789190       -0.23946561304534
H            1.17732106023341        3.31024988014315       -0.09410027691045
H           -0.93446217954834        4.61794684695725       -0.04906174313463
H           -3.18951511981619        2.07829258016134       -2.08022844036485
H           -4.83387838072023        1.95758261839558       -3.88784256271355
H           -6.87997115112708        3.35126964949277       -3.80958720668013
H           -7.23088369629452        4.88894955161229       -1.88831319315784
H           -5.97705734791238        6.74657718328544        2.09362164453658
H           -4.46076634188205        6.92693094421600        4.05469903139506
H           -2.45145245241782        5.48483802596580        4.17157214743674
H           -1.94449981729117        3.92550536719752        2.35163088072651
H           -3.16229944625392        1.00204853308445        0.24089043343123
H           -3.16765715225193       -0.98955464562509        0.22026753670422
H           -3.13594541884006       -2.10005882658919       -2.08921920280294
H           -4.73383900626594       -1.99237464507844       -3.93818287489153
H           -6.79422922181480       -3.36664611436232       -3.88977541296464
H           -7.20519627564710       -4.87340876095579       -1.95638131096801
H           -6.06082740041391       -6.69012344370779        2.07737850938838
H           -4.58916425170819       -6.86274457275917        4.07263912713453
H           -2.57046504519627       -5.43654210746016        4.21864375272715
H           -2.01087012413255       -3.90008294373370        2.39434578314471
H           -0.94861331822678       -4.61746022548722        0.03001210154882
H            1.16794462015613       -3.31778214738492       -0.00941605846231
H            4.97142734271414       -2.47608356413215       -0.05789283433738
H            8.34960816840419       -0.33886037020229        1.47051365550610
H           10.41253876617093       -1.73037426024437        1.49312304379195
H           10.56481147050758       -3.66151499528215       -0.09041658416491
H            6.88368805012907       -2.88374596219525       -1.65116018346075
H            8.26667294427642        0.30037453520899       -1.95145113252614
