94
 energy: -157.734664493272 gnorm: 0.000082495517 xtb: 6.7.1 (edcfbbe)
C            9.56462227940288        1.92587627665655       -1.29546771423898
C            9.69952234442151        2.99191909492377       -0.41791958544520
N            8.78119969302057        3.30571877345359        0.48259049312640
C            7.69028250749122        2.56605922199360        0.54637861563382
C            7.44388380020115        1.46430975029299       -0.27613390085848
C            6.19730827850344        0.69787956948336       -0.15979045427229
C            4.98949288240507        1.38480132059458       -0.12398345546045
C            3.76714830696784        0.71777243008540       -0.06951970024746
N            2.60419764097833        1.37808513572082       -0.03993366680910
C            1.45333579513547        0.71148896685151        0.00853560445598
C            0.21158701966919        1.41930205865258        0.04829456235600
C            0.22165281064256        2.82424912670701        0.01363090567866
C           -0.94241672373527        3.54291928338080        0.02505292451931
C           -2.16812494624664        2.86217396322893        0.09246416470203
N           -3.37933299740170        3.59814081618669        0.08896026644494
C           -4.25987738108007        3.51040651341067       -0.98595684813590
C           -4.02605462619080        2.68004526022463       -2.07896318699142
C           -4.92974880299116        2.61671445363216       -3.12607355555205
C           -6.07807847214427        3.38781095423703       -3.10991733967535
C           -6.31556955859809        4.23937036544671       -2.04272458538377
C           -5.41700280165896        4.30669080570825       -0.99170281588371
O           -5.70579360980196        5.18750740164458        0.01848388284331
C           -4.83416211402701        5.25359280612128        1.07424470406866
C           -5.14718635194628        6.13012084151645        2.09877493815865
C           -4.32153837663451        6.22812885302806        3.20772312957901
C           -3.19173567808601        5.43409641962377        3.29256617939709
C           -2.87148372015065        4.55701043515631        2.27024676953014
C           -3.67386253719521        4.46529921147935        1.13617344626990
C           -2.19936760008506        1.48517781836202        0.14754022095011
C           -1.02216167646938        0.72479418555139        0.11258004186247
C           -1.02376531888502       -0.71680711168436        0.11999393505061
C           -2.20257468248275       -1.47437903480939        0.16200834851309
C           -2.17407965510158       -2.85190812635133        0.12050326512281
N           -3.38667939409926       -3.58558536106258        0.12264957328628
C           -4.26489602114662       -3.50799160728407       -0.95497647002740
C           -4.02898215453426       -2.68756232080617       -2.05500458388263
C           -4.93040105419387       -2.63411595384334       -3.10461273676860
C           -6.07849103701236       -3.40544957081206       -3.08389084047913
C           -6.31797513635967       -4.24737314445557       -2.00952754344847
C           -5.42165402860616       -4.30482262719042       -0.95600556564808
O           -5.71202876709610       -5.17696807377121        0.06125122454598
C           -4.84261967917144       -5.23319944386948        1.11938742114624
C           -5.15706728375931       -6.10094634387602        2.15093768767340
C           -4.33349919858836       -6.18872606410688        3.26229318184224
C           -3.20447685417073       -5.39310842710894        3.34253569503072
C           -2.88284660085039       -4.52472110034038        2.31326277573461
C           -3.68297155460954       -4.44361519008784        1.17679258241655
C           -0.94972010092931       -3.53585538365431        0.06098868627237
C            0.21580087005607       -2.81975124885164        0.04324008403173
C            0.20853308695764       -1.41448729832469        0.06340808203976
C            1.45167393938708       -0.70974771883488        0.01642900627756
N            2.60107467230887       -1.37945794026888       -0.02460830472460
C            3.76533401688125       -0.72218024909854       -0.06089769201054
C            4.98672538209645       -1.39269032591680       -0.08893627544482
C            6.19615432019375       -0.70908616536044       -0.12717664756701
C            7.44432055184131       -1.48036167278168       -0.08058941215322
C            8.46615843744830       -1.17978645627077        0.82078190869138
C            9.61095845073394       -1.95621662506068        0.82911251944278
C            9.69755500913991       -3.01702910679738       -0.06084083040344
N            8.73402489525078       -3.32206061102079       -0.91593208463782
C            7.64421230112385       -2.57802542796746       -0.92077737922201
C            8.41892608204973        1.15396928224425       -1.22497524307563
H           10.33392215411131        1.70983052661985       -2.02073265151955
H           10.57494670822595        3.62796422571333       -0.43247391467795
H            6.97474824566443        2.85283659000359        1.30739388876384
H            4.97879103797897        2.46382410313786       -0.16350927423052
H            1.18126794013534        3.31530050622588       -0.03860675059976
H           -0.93202410657162        4.62119368490493       -0.02312744888827
H           -3.12592867516302        2.08743838135620       -2.11218919211858
H           -4.72575887368380        1.96134458446615       -3.95843683852794
H           -6.78419820578352        3.33892959010839       -3.92345131881755
H           -7.19208847621106        4.86666453959537       -2.00595733073163
H           -6.04334404444939        6.72330887195166        2.00869802070137
H           -4.56976051018694        6.91530548055305        4.00086411264940
H           -2.55130788756639        5.49013161516995        4.15911686871999
H           -1.99413449081581        3.93508194341857        2.35013686638313
H           -3.16132474320449        1.00232094599209        0.21232763277406
H           -3.16358835814321       -0.98894595280235        0.22137670673111
H           -3.12894837723768       -2.09503710185921       -2.09173132798731
H           -4.72477688755535       -1.98646434868039       -3.94260161425570
H           -6.78287444686174       -3.36429820960266       -3.89934841457532
H           -7.19424795217533       -4.87478131274117       -1.96909901504685
H           -6.05260168778803       -6.69559644990567        2.06438089027315
H           -4.58272967767123       -6.86928419585453        4.06080577052488
H           -2.56574902174001       -5.44111760745866        4.21082855405844
H           -2.00618299217280       -3.90133706801315        2.38936644614078
H           -0.94152384272697       -4.61458489459527        0.02370428497286
H            1.17446236339119       -3.31322595964844       -0.00322172023563
H            4.97571821911607       -2.47167940612874       -0.04750339823296
H            8.35299454570023       -0.35643195861132        1.51193934299051
H           10.41637559734432       -1.74772432880653        1.51637610449405
H           10.57017304702481       -3.65621796279375       -0.09419234925269
H            6.88967606971905       -2.85770750767915       -1.64593379040862
H            8.26960292355581        0.32652241584836       -1.90422771403983
