96
 energy: -150.045888170435 gnorm: 0.000026335697 xtb: 6.7.1 (edcfbbe)
C           -3.14652383620991       -5.66552480342607       -0.52746726973525
C           -3.63588478660729       -4.57857642207873        0.17938301523759
C           -2.84262350171188       -3.46563718679674        0.37998491680872
C           -1.53988874853803       -3.42628240346403       -0.11969989805321
C           -0.73575567807497       -2.22066250471816        0.07088230191052
N           -1.36184207367959       -1.05279831448279        0.04494844271706
C           -0.73205088946543        0.11819571181515        0.04054768180055
C           -1.41592759534087        1.34367640749004       -0.04469603940667
C           -2.87445480838529        1.37995755854798       -0.05308446843744
C           -3.61946506396391        0.53879473047418        0.77824994761896
C           -4.99580115247369        0.57822349686109        0.78162699286420
C           -5.67538971341764        1.45618228758870       -0.06218994253232
N           -7.07634369957860        1.47377736872829       -0.07895183427455
C           -7.87717286746467        2.59207805691882        0.03655740921557
C           -7.51959907374578        3.91844756950431        0.23713904091765
C           -8.53383790772343        4.85069377216524        0.34933103350550
C           -9.87480300509497        4.47902107667628        0.27578619872077
C          -10.23738794168848        3.15729382521599        0.10074523262313
C           -9.23620965662228        2.20232059655646       -0.01618280092524
C           -9.24457876283053        0.77415174648313       -0.17937185516152
C          -10.25630229909056       -0.16769602689243       -0.31183820944530
C           -9.90816970329917       -1.49411751968047       -0.48073407556636
C           -8.57117415571559       -1.88329419310172       -0.53417147485517
C           -7.54649871956433       -0.96463127088605       -0.40599625644328
C           -7.89040044140600        0.36626744992752       -0.20973945772324
C           -4.94544079077736        2.30503188854463       -0.89140539166886
C           -3.56691604427709        2.26783164854066       -0.88206985835156
C           -0.66188485289820        2.52184103445652       -0.17974827463104
C            0.70733728288361        2.50169890605826       -0.23885075069432
C            1.43555025497278        1.30235540688006       -0.12975925775732
C            2.89346104820543        1.30923576496405       -0.11344635950769
C            3.60839487112944        2.26884409311096       -0.84266296261412
C            4.98575152445474        2.26980905009905       -0.86313829833081
C            5.70398498967200        1.32241213520589       -0.13460699815647
N            7.10446558826445        1.32333251198848       -0.14865173741201
C            7.91401770388971        2.41812929770283        0.08055699590427
C            7.56658913315612        3.72145869441796        0.40968487107525
C            8.58792695656830        4.63014148095595        0.61377673128549
C            9.92607225454561        4.25697422685065        0.50560240212375
C           10.27862145744960        2.95584097510517        0.20181108196543
C            9.27015186568555        2.02516071319830       -0.00833490327330
C            9.26812558143916        0.61985313721881       -0.31068695547796
C           10.27406771584688       -0.31087944194049       -0.53306812991711
C            9.91793197443751       -1.61225358498697       -0.83119058601805
C            8.57859290660760       -1.98562030739334       -0.92188643699201
C            7.55986259167524       -1.07688352451255       -0.70568912224903
C            7.91108429311213        0.22699929195814       -0.38291435657358
C            5.00645615687197        0.37381642967578        0.61131107191892
C            3.62899672199766        0.37056824783997        0.61736798832624
C            0.71647199049357        0.10288015678775        0.01920625978793
N            1.31457546376801       -1.07376318766070        0.16016441865832
C            0.66566652617102       -2.22747310434873        0.25117441184057
C            1.45140747750297       -3.41534317870113        0.57522793418196
C            2.74893379330330       -3.52657950626407        0.07122294511696
C            3.53198684313366       -4.61812684018923        0.39248276039680
C            3.03826058204408       -5.60906197842246        1.22635238898957
C            1.75824841868954       -5.49521237359006        1.74740989242275
C            0.96925207017961       -4.40631061983501        1.43113060073803
C           -1.06332011647014       -4.51484180958743       -0.85112893188303
C           -1.86159360725473       -5.62514857496330       -1.04701190722690
H           -3.76560947229045       -6.53692891200284       -0.68105663788588
H           -4.64040544680161       -4.59830287994668        0.57674614317936
H           -3.21734620968527       -2.61504635254138        0.92824122816025
H           -3.10188070749513       -0.13118874444229        1.44685787577496
H           -5.55798595236209       -0.05618932499445        1.45100395247511
H           -6.48395688476180        4.21303508439798        0.31388453566622
H           -8.28130330880638        5.88989170690145        0.50218054955176
H          -10.63865682406782        5.23735801967575        0.36626900279256
H          -11.27705566514270        2.86845236385403        0.06081128129031
H          -11.29259718152020        0.13469124421255       -0.28824700217350
H          -10.68054321895188       -2.24227399478508       -0.58309901950475
H           -8.32973052369652       -2.92541650874571       -0.68487752706424
H           -6.51370328414880       -1.27258877752719       -0.46968271330376
H           -5.46667924374924        2.97341642103014       -1.56083518632695
H           -3.01575807962917        2.91205487806748       -1.55085306602869
H           -1.18321054473213        3.46640628245451       -0.21420801430568
H            1.24587122062637        3.43312682698237       -0.31898882118439
H            3.07580782210930        2.99160654356093       -1.44167769350779
H            5.51731629004762        2.98976089280628       -1.46781460746469
H            6.53348780304169        4.01556004097732        0.51560439395413
H            8.34322075125230        5.65116406258514        0.86802804690748
H           10.69579526760186        4.99643789033549        0.67102330898041
H           11.31594569338139        2.66410529793247        0.13364117896793
H           11.31208400960455       -0.01878389257870       -0.47853238538072
H           10.68565611521596       -2.35180305467736       -1.00536116936206
H            8.33098276166063       -3.00712438239265       -1.17135799753824
H            6.52554489451056       -1.37148468323390       -0.79550464260970
H            5.55189102636455       -0.34519985472965        1.20434421243055
H            3.10559428350549       -0.36244176821573        1.21195893429791
H            3.12244444005274       -2.74899949287068       -0.57855801903318
H            4.53221800726133       -4.69621188519153       -0.00839817460160
H            3.65016901795406       -6.46321836490423        1.47550997161088
H            1.37493121843793       -6.25644381920789        2.41110101688274
H           -0.01968442144882       -4.31380004658360        1.85571771280429
H           -0.07079000677561       -4.48288144488374       -1.27593122600437
H           -1.48079761709979       -6.46173866167516       -1.61443537357137
