96
 energy: -150.103724280068 gnorm: 0.000058142994 xtb: 6.7.1 (edcfbbe)
C           -3.07095868143608       -5.55145614197191       -0.77630635794908
C           -3.59223644817912       -4.51877034692696       -0.01340583562566
C           -2.83071320076434       -3.39406866475809        0.24175757933527
C           -1.53157864531263       -3.29577503670070       -0.25206307931332
C           -0.74628630556887       -2.08606170017386        0.01857516997623
N           -1.39128634055384       -0.94479986776107       -0.01721847081254
C           -0.71180768773677        0.21165849724252        0.08516304399119
C           -1.40789904307866        1.44943189850512        0.05809298498762
C           -2.87317425646542        1.47032120206425        0.06348722573426
C           -3.59582634096127        0.61832880343882        0.89706471768882
C           -4.97501502457763        0.61006659020169        0.87562968631056
C           -5.66716333098639        1.45443715087129        0.01125765016970
N           -7.06833769252645        1.42078279711841       -0.03262456346694
C           -7.91345422565008        2.50625860138414        0.07972603567505
C           -7.61093033174067        3.84213960305912        0.30403785212072
C           -8.66173829704899        4.73396262473909        0.40497095144040
C           -9.98606882829845        4.31321898560302        0.29701419523592
C          -10.29399373405596        2.98236450825169        0.09484888339763
C           -9.25484763421463        2.06654752109129       -0.01143878377995
C           -9.20554385150748        0.64294278353484       -0.19832756086211
C          -10.17766045006113       -0.33409610520927       -0.37347207794258
C           -9.77593241653972       -1.64230862795549       -0.55764091242768
C           -8.42400693972129       -1.98035854694230       -0.58270656988806
C           -7.43854304233858       -1.02705470090371       -0.41082043262713
C           -7.83712304199624        0.28604323455180       -0.20165486805499
C           -4.95467114929266        2.32238461926329       -0.81201799069470
C           -3.57477428159113        2.33134854961603       -0.77963303253566
C           -0.65938952803303        2.60530293984888       -0.00495045100749
C            0.73734102848504        2.57967375718259       -0.02564447958978
C            1.44745280350944        1.39979755561739        0.04627961354258
C            2.91495276540676        1.38699091021526        0.03216970144734
C            3.61195531622068        2.18986106921745       -0.87040015730735
C            4.99116867709683        2.16740465159610       -0.92126966606288
C            5.70910944691570        1.34945999255180       -0.05250265126363
N            7.10986973434277        1.31116405681798       -0.10840096748654
C            7.95385520263591        2.40393983777699       -0.09711312132814
C            7.65242983372185        3.75366388499529        0.02250533854349
C            8.70254191515432        4.65184896886084        0.03298024551404
C           10.02595646687836        4.22563564354350       -0.06326433019240
C           10.33363098249012        2.88297433368685       -0.15994229142717
C            9.29486202262910        1.96081006115503       -0.17467009344991
C            9.24711289601198        0.52689519336795       -0.24480850066223
C           10.22083907605259       -0.45794266730321       -0.35509000262276
C            9.82254698150893       -1.77833353731473       -0.42178380639382
C            8.47201812952697       -2.12119457565037       -0.39362799222445
C            7.48526896554019       -1.15986322075645       -0.28520515357872
C            7.88008576448094        0.16793156232240       -0.19575372070575
C            5.02120240024789        0.56240627445985        0.86770854157753
C            3.64177004264826        0.57793053243382        0.90387372241856
C            0.71045142766846        0.18878468761005        0.12213321107559
N            1.34954148997074       -0.98788004224692        0.25109586330869
C            0.66434252623529       -2.10548045731367        0.26667023132496
C            1.41490686169908       -3.32828262420957        0.57355501100982
C            2.70539626479784       -3.48213945073429        0.07090825356237
C            3.43926489226654       -4.61490395700453        0.36804782089968
C            2.89893611080921       -5.59854979663537        1.18116615850738
C            1.62432738955670       -5.44139461233653        1.70227321542492
C            0.88286803013853       -4.31375821905142        1.40272751106445
C           -1.01974307669261       -4.33005731173376       -1.03331619840076
C           -1.78833789297606       -5.44966950031605       -1.29146021034179
H           -3.66474199607834       -6.43134653119100       -0.97522580942126
H           -4.59487728077443       -4.59017476432411        0.38226629322944
H           -3.22509323634933       -2.58065411161783        0.83118518565660
H           -3.06634577725283       -0.02871511319721        1.57891173799362
H           -5.52741471807111       -0.04230498527943        1.53564453732930
H           -6.58879057306220        4.17435617784382        0.40595671458426
H           -8.45246640923808        5.78000629935625        0.57634720563391
H          -10.77993167619195        5.04110034078965        0.38050206833268
H          -11.32084064809611        2.65526934448962        0.02526221955674
H          -11.22496685159363       -0.07070537816263       -0.37106473100786
H          -10.51650019810006       -2.41692178875260       -0.69402290278955
H           -8.13993330051180       -3.00990572505533       -0.74587755390543
H           -6.39341798881752       -1.29453006496341       -0.45199731080362
H           -5.48826883070895        2.97056520711952       -1.49132001479741
H           -3.03129994037574        2.98781417653097       -1.44306066339097
H           -1.16350288710127        3.56048998223376       -0.02109325614143
H            1.27483936162521        3.51588323275721       -0.06458819989537
H            3.06437431267138        2.81121662438763       -1.56392948032641
H            5.51871616451162        2.76750272469836       -1.64774417725335
H            6.63187597008511        4.09293858617115        0.11585266036445
H            8.49322603608413        5.70810767247384        0.12182341412553
H           10.81925858459588        4.95881885594369       -0.05294070097138
H           11.35986722301227        2.55196217422573       -0.21942852215410
H           11.26668835535714       -0.19133267317394       -0.39177900626162
H           10.56419842016614       -2.55934208707248       -0.50559661236284
H            8.19036933236734       -3.16207520725630       -0.46135958008351
H            6.44151926361862       -1.43431076602170       -0.27987856359297
H            5.57497028839027       -0.05289394315711        1.56112162101854
H            3.11864013847947       -0.03453368667843        1.62056103713065
H            3.11119039247872       -2.70512044188869       -0.55955585578786
H            4.43540997647799       -4.73082757074323       -0.03327240625904
H            3.47186158891528       -6.48412054508982        1.41327498094544
H            1.20605339189031       -6.19972058344604        2.34776543008935
H           -0.10443777776967       -4.18752647696308        1.82325859824788
H           -0.02657831961474       -4.24815466017447       -1.45092681572928
H           -1.38429321028359       -6.24574903208819       -1.89947972970732
