  96
       -149.98555244
 C         -3.0873215038       -5.5280885125        0.8829757677
 C         -1.7918249376       -5.4587884290        1.3714911817
 C         -0.9901624979       -4.3739273860        1.0752106016
 C         -1.4759818942       -3.3422290668        0.2720307402
 C         -0.6802180851       -2.1547100839       -0.0285867809
 N         -1.3229713492       -0.9977251057       -0.0817813628
 C         -0.7210235684        0.1794816857       -0.1867649813
 C         -1.4353347920        1.3897138991       -0.2338345538
 C         -2.8894543615        1.3967103807       -0.1440044811
 C         -3.5866288914        0.4084303642        0.5587458444
 C         -4.9621553175        0.4020282734        0.6150362507
 C         -5.6963967005        1.3920042497       -0.0346463686
 N         -7.0951779855        1.3764020243        0.0108672229
 C         -7.9072817546        2.4391882068        0.3498796865
 C         -7.5624485804        3.7227934666        0.7490568938
 C         -8.5853414875        4.5975638745        1.0612879496
 C         -9.9215448260        4.2103838318        0.9895048229
 C        -10.2701886895        2.9274135847        0.6159784422
 C         -9.2602678394        2.0302425684        0.2971733936
 C         -9.2531285042        0.6488394708       -0.0974320784
 C        -10.2550448114       -0.2826775729       -0.3327243955
 C         -9.8948563782       -1.5554973063       -0.7295122256
 C         -8.5564325122       -1.8988573366       -0.9068354955
 C         -7.5415022578       -0.9891434759       -0.6800156885
 C         -7.8960562172        0.2847153894       -0.2579850005
 C         -5.0170465615        2.3925354303       -0.7276195908
 C         -3.6402788625        2.3994253932       -0.7711753491
 C         -0.7000085222        2.5876557508       -0.3064296893
 C          0.6697568969        2.5985765115       -0.2766402406
 C          1.4230673374        1.4102671688       -0.2420966335
 C          2.8792708040        1.4307393318       -0.2482672693
 C          3.5756375285        2.4817040255        0.3631951712
 C          4.9497479347        2.4699868412        0.4533127774
 C          5.6834261158        1.4142374343       -0.0854763698
 N          7.0768630297        1.3767706855        0.0396413406
 C          7.8087697686        0.3043962407        0.5094380639
 C          7.3727101110       -0.9305893885        0.9688329905
 C          8.3253698265       -1.8241227749        1.4196704059
 C          9.6806272938       -1.5018944523        1.4254461413
 C         10.1186252625       -0.2664712477        0.9905727042
 C          9.1804347713        0.6479057579        0.5315296712
 C          9.2709661108        1.9952496460        0.0413716145
 C         10.3324750744        2.8609942701       -0.1822528240
 C         10.0661422307        4.1154541657       -0.6950334829
 C          8.7630836625        4.5041425675       -0.9977353670
 C          7.6901269948        3.6600839440       -0.7842705615
 C          7.9487031511        2.4070607583       -0.2463539783
 C          5.0073483301        0.3857191991       -0.7386236529
 C          3.6326025231        0.3986460861       -0.8176390138
 C          0.7263909251        0.1884172810       -0.2242846285
 N          1.3446990412       -0.9843847891       -0.2516431777
 C          0.7186139536       -2.1517628267       -0.2262863637
 C          1.5301547663       -3.3471458523       -0.4393928364
 C          1.0587587963       -4.4403769820       -1.1663406696
 C          1.8730677422       -5.5353024358       -1.3791219570
 C          3.1672064788       -5.5542976672       -0.8823894899
 C          3.6504407625       -4.4616976888       -0.1804042182
 C          2.8423593120       -3.3633468736        0.0373450931
 C         -2.7895364206       -3.4073398910       -0.1966337230
 C         -3.5847090421       -4.4954220712        0.1043949580
 H         -3.7088876760       -6.3796206235        1.1161567209
 H         -1.4061829850       -6.2525812587        1.9940931731
 H          0.0106981754       -4.3163072343        1.4769995945
 H         -3.0344904959       -0.3561634950        1.0826371608
 H         -5.4788314990       -0.3567826243        1.1838408596
 H         -6.5293875353        4.0258854020        0.8269640507
 H         -8.3431988440        5.6028329953        1.3728468681
 H        -10.6918314999        4.9240059009        1.2409239510
 H        -11.3049948434        2.6224290963        0.5770832664
 H        -11.2928799763       -0.0118698593       -0.2107903731
 H        -10.6585529671       -2.2963693469       -0.9131962787
 H         -8.3068238930       -2.8985120042       -1.2306525756
 H         -6.5081590066       -1.2591551738       -0.8364542792
 H         -5.5801445541        3.1479836788       -1.2557005996
 H         -3.1392107199        3.1650340120       -1.3437552761
 H         -1.2329769598        3.5253660050       -0.3379721856
 H          1.1891655867        3.5434455090       -0.3200598497
 H          3.0286852780        3.2886152605        0.8265268103
 H          5.4655269984        3.2622351835        0.9758014003
 H          6.3232506056       -1.1823521346        0.9864716576
 H          8.0118434910       -2.7923204818        1.7812335000
 H         10.3941850603       -2.2278981909        1.7854964073
 H         11.1671108509       -0.0103846505        1.0109051580
 H         11.3437774885        2.5545954026        0.0383961362
 H         10.8772181622        4.8054556342       -0.8731746973
 H          8.5879977238        5.4860002679       -1.4120176760
 H          6.6860438966        3.9625036528       -1.0403642197
 H          5.5702718802       -0.4133946193       -1.1979137888
 H          3.1263627363       -0.4000307639       -1.3371536540
 H          0.0588419025       -4.4235552917       -1.5742284504
 H          1.4984591047       -6.3770182484       -1.9427260508
 H          3.7987772819       -6.4138262321       -1.0500906689
 H          4.6625390065       -4.4658604012        0.1974906969
 H          3.2091836304       -2.5063928210        0.5827515665
 H         -3.1680050222       -2.5961508754       -0.8008940181
 H         -4.5978365155       -4.5381996172       -0.2681741350
