  45
        -74.80904737
 C         -4.7171715892        3.5818952837        0.3953405624
 C         -3.3331032862        3.6000570328        0.4689061638
 C         -2.6069725095        2.4318704109        0.3403316171
 C         -3.2517915878        1.2137332840        0.1165756998
 C         -4.6579746675        1.2010682073        0.0983512802
 C         -5.3785781616        2.3781177751        0.2260020308
 O         -5.3724348519        0.0448201194       -0.0133524082
 C         -4.6795209890       -1.1221826251       -0.1453185200
 C         -5.4205168614       -2.2861943922       -0.2747616002
 C         -4.7807572814       -3.4985184565       -0.4648570001
 C         -3.3980896901       -3.5383215828       -0.5565216453
 C         -2.6516539850       -2.3836413097       -0.4240729345
 C         -3.2741233135       -1.1575949946       -0.1802536870
 N         -2.5533636319        0.0209049131       -0.0295759460
 C         -1.1522156406        0.0047892573       -0.0204221534
 C         -0.4544184967       -0.7914848712        0.9141500769
 C          0.9055179190       -0.7954202277        0.9431063238
 C          1.6656793121       -0.0236089493        0.0095453000
 C          3.0495431057       -0.0142071892        0.0035131505
 N          3.8191846185        0.6737363072       -0.8312626364
 C          5.1124987269        0.4975634222       -0.6091492466
 C          6.1648497671        1.0941968260       -1.3336154600
 C          7.4626824450        0.8154970452       -0.9876848404
 C          7.7685453015       -0.0488574569        0.0696427027
 C          6.7600523977       -0.6557662570        0.8043797180
 C          5.4505487881       -0.3874540594        0.4721108292
 S          4.0076445675       -1.0007631317        1.2069335632
 C          0.9395012808        0.7606695809       -0.9457722586
 C         -0.4192594019        0.7835674249       -0.9449525008
 H         -5.2816778517        4.4957023586        0.4894186655
 H         -2.8108119599        4.5292856972        0.6343576321
 H         -1.5326762456        2.4528850647        0.4239870952
 H         -6.4549011505        2.3226433051        0.1981706411
 H         -6.4953292062       -2.2140159302       -0.2323237357
 H         -5.3610603536       -4.4021340386       -0.5608451750
 H         -2.8935348803       -4.4741455096       -0.7389932147
 H         -1.5787247467       -2.4200314183       -0.5204154438
 H         -1.0196800834       -1.3604142522        1.6386343144
 H          1.4364654253       -1.3743435016        1.6829513620
 H          5.9216502396        1.7589935657       -2.1467152205
 H          8.2712743903        1.2712030070       -1.5406182315
 H          8.7999977041       -0.2467942671        0.3173696327
 H          6.9925928530       -1.3236182185        1.6197941053
 H          1.5121366089        1.3189899711       -1.6674913980
 H         -0.9593553426        1.3597738127       -1.6827860819
  45
        -74.80867550
 C         -4.6230122140        3.4090133594        0.9378164651
 C         -3.2389573230        3.3834972953        1.0036998297
 C         -2.5418447000        2.2293404358        0.7027586249
 C         -3.2171071849        1.0602676039        0.3464939000
 C         -4.6177617791        1.1143437907        0.2328392816
 C         -5.3094682240        2.2768984202        0.5357489788
 O         -5.3534770195        0.0540844859       -0.2076931381
 C         -4.6914194555       -1.0988288440       -0.5101621346
 C         -5.4536091438       -2.1700141300       -0.9482605761
 C         -4.8497510763       -3.3849686306       -1.2218399097
 C         -3.4856645487       -3.5343243337       -1.0231392450
 C         -2.7175360539       -2.4698549906       -0.5932891157
 C         -3.2978466025       -1.2200692490       -0.3648442719
 N         -2.5504149689       -0.1234063721        0.0458207953
 C         -1.1517257516       -0.1867093714        0.0887625664
 C         -0.4503988502        0.1457652639        1.2686855368
 C          0.9098994135        0.1479470311        1.2911295765
 C          1.6663334060       -0.1507943133        0.1147620112
 C          3.0470986029       -0.0685765723        0.0734073518
 N          3.8069579841       -0.3169719114       -0.9866876745
 C          5.0958793803       -0.1182760645       -0.7587449288
 C          6.1365125706       -0.2904148250       -1.6945039778
 C          7.4302373347       -0.0352704454       -1.3165355408
 C          7.7427838154        0.3923234056       -0.0211118232
 C          6.7458275094        0.5711359744        0.9274253752
 C          5.4407493470        0.3186585828        0.5665188637
 S          4.0099939431        0.4609500041        1.5323502488
 C          0.9374927411       -0.5262411391       -1.0613049681
 C         -0.4206913317       -0.5530884045       -1.0654810704
 H         -5.1654076948        4.3097681203        1.1763608219
 H         -2.6920741603        4.2706021029        1.2823499518
 H         -1.4646732069        2.2316796166        0.7275423123
 H         -6.3831959836        2.2705606560        0.4388180644
 H         -6.5167133288       -2.0285395011       -1.0585204391
 H         -5.4459360016       -4.2143223401       -1.5673021975
 H         -3.0140854708       -4.4886029567       -1.1980104493
 H         -1.6613785565       -2.5992905336       -0.4199915055
 H         -1.0132455350        0.3578582013        2.1667305197
 H          1.4435265301        0.3731130311        2.2017419293
 H          5.8874304955       -0.6174237399       -2.6911873070
 H          8.2298936138       -0.1631674971       -2.0316481997
 H          8.7704927180        0.5869251034        0.2442554108
 H          6.9843070254        0.9017600588        1.9268552312
 H          1.5081656849       -0.7587101646       -1.9449017542
 H         -0.9619007426       -0.7996061253       -1.9678564639
  45
        -74.80823133
 C         -5.1138874561        3.1839325847        1.1172709709
 C         -3.7538107286        3.4245193048        0.9970604821
 C         -2.8959834720        2.4211004952        0.5900068414
 C         -3.3804286637        1.1421328443        0.3076183818
 C         -4.7688476314        0.9276199415        0.3765616229
 C         -5.6215618017        1.9386080503        0.7901894482
 O         -5.3382464260       -0.2589783142        0.0199230241
 C         -4.5117244815       -1.2688328214       -0.3761136221
 C         -5.1060772646       -2.4751879491       -0.7122912706
 C         -4.3237053767       -3.5589360004       -1.0702677791
 C         -2.9428427707       -3.4407478239       -1.0598520911
 C         -2.3425681512       -2.2416287750       -0.7281883283
 C         -3.1139948573       -1.1206771495       -0.4146030030
 N         -2.5442280274        0.1049556240       -0.0844918043
 C         -1.1521539430        0.2616981158       -0.1022114579
 C         -0.4588618348        0.6528864004        1.0644544292
 C          0.9010350477        0.6846953865        1.0826357626
 C          1.6635008021        0.3362240542       -0.0762628363
 C          3.0435933286        0.2370178652       -0.0581852362
 N          3.8068697776       -0.1486456359       -1.0740837324
 C          5.0860420010       -0.2564793927       -0.7495161910
 C          6.1240161534       -0.6777897291       -1.6057999765
 C          7.4039222934       -0.7641777528       -1.1197117473
 C          7.7064720517       -0.4362341565        0.2066523995
 C          6.7129532267       -0.0101013579        1.0765383189
 C          5.4205843196        0.0759125291        0.6082817344
 S          3.9955885765        0.5560888093        1.4674075987
 C          0.9399805470        0.0354768327       -1.2768029965
 C         -0.4174509837       -0.0198554533       -1.2772934421
 H         -5.7806057931        3.9657478914        1.4440926138
 H         -3.3553709389        4.4028179507        1.2156664355
 H         -1.8432699920        2.6225334088        0.4747977919
 H         -6.6776256953        1.7270639086        0.8391151070
 H         -6.1814842159       -2.5413379608       -0.6758133389
 H         -4.7902871622       -4.4942304920       -1.3349686350
 H         -2.3230524721       -4.2892973682       -1.3035326318
 H         -1.2679003170       -2.1698045595       -0.6972583796
 H         -1.0230001129        0.8683636821        1.9605810517
 H          1.4307955022        0.9398396419        1.9873577227
 H          5.8830757853       -0.9312452571       -2.6255787797
 H          8.2002611885       -1.0940697735       -1.7710663136
 H          8.7232049102       -0.5168636529        0.5590452825
 H          6.9427468907        0.2432556012        2.1002287886
 H          1.5130232854       -0.1531228314       -2.1693271034
 H         -0.9586941846       -0.2457635459       -2.1852325614
  45
        -74.80811600
 C         -4.3818469603        3.4543689050        0.9313801821
 C         -2.9992243707        3.3706828359        0.8776499043
 C         -2.3800336360        2.1797004511        0.5527635825
 C         -3.1336129616        1.0343960298        0.2871706722
 C         -4.5350050597        1.1453836093        0.2945019461
 C         -5.1483875679        2.3435506272        0.6250793906
 O         -5.3452623250        0.1021315708       -0.0447078316
 C         -4.7536778501       -1.0683267894       -0.4196931101
 C         -5.5919798272       -2.1082010282       -0.7890848897
 C         -5.0603710311       -3.3375105366       -1.1375304959
 C         -3.6886632405       -3.5317813853       -1.0889454002
 C         -2.8451123340       -2.5006371268       -0.7223490832
 C         -3.3576222040       -1.2404048804       -0.4097002868
 N         -2.5412063298       -0.1809344369       -0.0376808829
 C         -1.1456874033       -0.3062473940        0.0114794680
 C         -0.4602976812       -0.0210823989        1.2133221978
 C          0.8981043415       -0.0419584945        1.2599715198
 C          1.6695276477       -0.2916519038        0.0817218680
 C          3.0472226825       -0.1639328645        0.0621012149
 N          3.8324158200       -0.3068812328       -0.9982467411
 C          5.1019215840       -0.0276752887       -0.7447871252
 C          6.1580878973       -0.0570372831       -1.6784449051
 C          7.4243687791        0.2812252764       -1.2734111917
 C          7.6960502916        0.6499455166        0.0491054161
 C          6.6837790423        0.6863975813        0.9970632279
 C          5.4049317229        0.3543108881        0.6077410135
 S          3.9633990379        0.3315898790        1.5655701237
 C          0.9564411249       -0.6330841261       -1.1144835781
 C         -0.4030730226       -0.6505066035       -1.1402268001
 H         -4.8629324900        4.3840236886        1.1897982494
 H         -2.3938907133        4.2399406513        1.0815615818
 H         -1.3052349105        2.1304274645        0.4909895193
 H         -6.2257276005        2.3822955077        0.6263090461
 H         -6.6554687253       -1.9310837099       -0.7870180551
 H         -5.7167841419       -4.1424818185       -1.4269526667
 H         -3.2696518027       -4.4961041796       -1.3301050126
 H         -1.7818589858       -2.6668419742       -0.6602502111
 H         -1.0382001754        0.1802444057        2.1042727237
 H          1.4189426822        0.1438874244        2.1864976960
 H          5.9414792162       -0.3383645663       -2.6963478175
 H          8.2342993628        0.2665150342       -1.9882668453
 H          8.7029889026        0.9116380348        0.3356166395
 H          6.8887786502        0.9721405615        2.0175404154
 H          1.5382051835       -0.8411710891       -1.9969926036
 H         -0.9315702372       -0.8653271786       -2.0580752034
  45
        -74.80761798
 C         -4.2940286456        3.4817999829        0.8940225656
 C         -2.9159455451        3.3425517593        0.9405701017
 C         -2.3221304442        2.1298629810        0.6492289481
 C         -3.0978676932        1.0163235298        0.3206787730
 C         -4.4909700958        1.1830899470        0.2306988721
 C         -5.0788299267        2.4038133227        0.5241215153
 O         -5.3179757524        0.1770519128       -0.1741095250
 C         -4.7536588666       -1.0233968958       -0.4909360785
 C         -5.6068013979       -2.0331321878       -0.9064758581
 C         -5.1043508197       -3.2894219227       -1.1978206845
 C         -3.7495553761       -3.5408584618       -1.0442116610
 C         -2.8909928903       -2.5390100025       -0.6346111291
 C         -3.3701535586       -1.2521943612       -0.3814434811
 N         -2.5341808252       -0.2207289726        0.0234993470
 C         -1.1439406040       -0.3874881941        0.0833633065
 C         -0.4489680642       -0.1086997365        1.2809290830
 C          0.9097739354       -0.1367766606        1.3173935952
 C          1.6708411521       -0.3917197215        0.1330476627
 C          3.0443837940       -0.2311101105        0.0921563728
 N          3.8226799288       -0.3867217528       -0.9708721424
 C          5.0805709103       -0.0362370713       -0.7488191335
 C          6.1255820396       -0.0582884640       -1.6949262087
 C          7.3764744566        0.3677929547       -1.3264251749
 C          7.6437190350        0.8192570751       -0.0289052385
 C          6.6437633420        0.8458975934        0.9320928898
 C          5.3806779392        0.4238656168        0.5797484208
 S          3.9572215434        0.3655606625        1.5619767860
 C          0.9477874999       -0.7615304919       -1.0486968119
 C         -0.4115579116       -0.7653230008       -1.0654641396
 H         -4.7555059231        4.4288035854        1.1237390048
 H         -2.2926316049        4.1851515168        1.1958738718
 H         -1.2483282897        2.0419377921        0.6613829110
 H         -6.1509972770        2.4852322559        0.4463319666
 H         -6.6590060526       -1.8116970922       -0.9854936818
 H         -5.7717481384       -4.0706954037       -1.5247437300
 H         -3.3563131075       -4.5263190992       -1.2390110159
 H         -1.8423978316       -2.7465112884       -0.4941862166
 H         -1.0188736900        0.0960668218        2.1762390226
 H          1.4387381433        0.0492943531        2.2392288751
 H          5.9122877442       -0.4018885274       -2.6942804107
 H          8.1771056333        0.3601000233       -2.0517788614
 H          8.6375170967        1.1521644425        0.2279030971
 H          6.8449413821        1.1931487160        1.9340984504
 H          1.5213841280       -0.9932820852       -1.9306079278
 H         -0.9485392571       -0.9940298091       -1.9749644345
  45
        -74.80744324
 C         -4.2442062620        3.4852243952        0.8965378035
 C         -2.8655539288        3.3430222845        0.8834703501
 C         -2.2880557866        2.1260079489        0.5787504309
 C         -3.0809042622        1.0122337730        0.2941145129
 C         -4.4759864070        1.1821216178        0.2612064807
 C         -5.0475155812        2.4065047346        0.5706740168
 O         -5.3200041474        0.1735493166       -0.0997671523
 C         -4.7690024495       -1.0238773597       -0.4504088942
 C         -5.6396952715       -2.0297781781       -0.8380468868
 C         -5.1508681925       -3.2830772956       -1.1632093559
 C         -3.7906695540       -3.5352577946       -1.0731308866
 C         -2.9147412925       -2.5379123982       -0.6893430848
 C         -3.3823501153       -1.2547892655       -0.3999119991
 N         -2.5318923442       -0.2284567222       -0.0129935668
 C         -1.1422574218       -0.4030787050        0.0485263466
 C         -0.4557323977       -0.1326320011        1.2531751459
 C          0.9023912337       -0.1638554189        1.3006498202
 C          1.6713756466       -0.4040858048        0.1185163858
 C          3.0444341572       -0.2367709690        0.0874103139
 N          3.8242343100       -0.3526309296       -0.9800840524
 C          5.0794803526       -0.0013171365       -0.7455415026
 C          6.1231695240        0.0220473144       -1.6931866703
 C          7.3716509891        0.4418138946       -1.3094971107
 C          7.6380521504        0.8410715427        0.0051717598
 C          6.6387251828        0.8244729263        0.9672452555
 C          5.3772724739        0.4112247645        0.5991042395
 S          3.9527307541        0.3127525035        1.5771003051
 C          0.9570009053       -0.7609485734       -1.0726104179
 C         -0.4024966333       -0.7681255805       -1.0990087053
 H         -4.6928235668        4.4352244443        1.1389297249
 H         -2.2298313023        4.1864272187        1.1029649770
 H         -1.2150548048        2.0332518924        0.5464309325
 H         -6.1218142879        2.4907349312        0.5396087827
 H         -6.6942268852       -1.8074758380       -0.8690229725
 H         -5.8323517448       -4.0615777542       -1.4668071911
 H         -3.4065962377       -4.5184656956       -1.2955720120
 H         -1.8613937168       -2.7474270117       -0.5960437716
 H         -1.0330867541        0.0693677378        2.1443353336
 H          1.4245687502        0.0129062589        2.2281349903
 H          5.9101758275       -0.2817288018       -2.7053788691
 H          8.1709383059        0.4698996119       -2.0357923211
 H          8.6306846997        1.1674366058        0.2746837411
 H          6.8393324544        1.1330345277        1.9819092927
 H          1.5375595965       -0.9815545155       -1.9527997086
 H         -0.9323142160       -0.9889555914       -2.0145832565
