102
 energy: -132.686727344114 gnorm: 0.000051481389 xtb: 6.7.1 (edcfbbe)
C            7.58168199779857        4.15839508127496       -1.80287680485530
C            7.21318836787228        3.74811047823225       -0.37388388088271
C            7.01397866889246        5.02600854963698        0.45494697304517
C            8.37669182483571        2.92872595595334        0.20453784777759
C            5.94251354855586        2.91442802615036       -0.31234102488681
C            5.47755394590418        2.46190906768913        0.92232999343980
C            4.33071327219541        1.70138734271162        1.03059939756635
C            3.60633328837715        1.36979768123543       -0.10839862683492
N            2.41434442009279        0.59604764285114       -0.01422713188348
C            2.53209240967351       -0.77310859089949        0.13598942361697
C            3.80499113985517       -1.34380680593793        0.19765186839894
C            3.96757337050733       -2.69506457635676        0.45111529307469
C            2.86151699815075       -3.51962008415814        0.68079321671617
C            3.08798079657262       -4.98105157787032        1.03348731690514
C            3.83672796109075       -5.66905501169188       -0.11824795779640
C            1.78323908834784       -5.74529940380392        1.27550538316837
C            3.93050106599646       -5.05716221238363        2.31653942817437
C            1.60254672498731       -2.95247685043457        0.56092924605092
C            1.37771316088539       -1.60456907966724        0.22735466468652
B            0.00128480858314       -0.96617725807425       -0.00261368786773
C           -1.37398830149209       -1.60671332868881       -0.23330925040973
C           -1.59607347131388       -2.95527518854405       -0.56598673076583
C           -2.85387780765004       -3.52461650974882       -0.68749649370665
C           -3.07721132086526       -4.98715371228178       -1.03765325656640
C           -3.91621113611098       -5.06762992483471       -2.32272742401922
C           -3.82794183615164       -5.67363364973626        0.11371473791072
C           -1.77066327685944       -5.74999384274634       -1.27429494435945
C           -3.96166361793607       -2.70136860415080       -0.46153805429350
C           -3.80167104957124       -1.34974793662322       -0.20839681117406
C           -2.52980878962611       -0.77703015982790       -0.14380743267573
N           -2.41442838757440        0.59224744786497        0.00784976486403
C           -3.60772711195876        1.36396222987832        0.10253561140677
C           -4.05473521561466        1.80458841144332        1.33973496152514
C           -5.20891234950764        2.56268156615406        1.43583671291532
C           -5.94745052006093        2.90316294977066        0.30799081242382
C           -7.22039950498536        3.73333023496072        0.37040436200772
C           -7.59110143745592        4.13951279651329        1.80000050262014
C           -7.02392845709180        5.01349585852680       -0.45555956393964
C           -8.38139055724820        2.91216056267127       -0.21057311851820
C           -5.48167426556393        2.45255176482605       -0.92706344095083
C           -4.33310062703860        1.69473277726370       -1.03608180223935
C           -1.20728377819777        1.28048375449569       -0.00020871362162
C           -1.20520991655062        2.67696503525426       -0.00500063608096
C           -0.00215488296157        3.37218122304989       -0.00056814074483
C            1.20198390994893        2.67886803737201        0.00251719198835
C            1.20616855503955        1.28241112225156       -0.00432086631796
C            0.00003593734405        0.55075320506280       -0.00248062329230
C            4.05284496970376        1.81176527674779       -1.34528588641609
C            5.20531999192504        2.57253118766203       -1.44063556500678
H            6.79788711650713        4.76473367156569       -2.25128557428981
H            7.76133096402083        3.28619746319562       -2.42740812150924
H            8.49430200173615        4.75075920073127       -1.78443750240629
H            6.17752424229122        5.60224494050194        0.06396817209768
H            6.81231087301233        4.79658720703261        1.49762057661624
H            7.90886964822091        5.64299378196293        0.40943372304449
H            8.19954821460351        2.66482949190487        1.24351774300243
H            9.29948768295557        3.50254184281063        0.15189832712297
H            8.50887649671459        2.00954144060462       -0.36313776278611
H            6.01591850493943        2.70500068956004        1.82551328978573
H            3.98694049551238        1.35933289649604        1.99617659972530
H            4.68469748545734       -0.73253060823092        0.06138153520004
H            4.97093291590564       -3.09103056951881        0.48943681674432
H            4.80202639005201       -5.20307186379915       -0.29741059594767
H            4.00268262134154       -6.71883284879204        0.11658987554771
H            3.25330702747026       -5.60761425182130       -1.03512715428121
H            1.21561838989183       -5.30370939439849        2.09171735378005
H            2.00929468433122       -6.77697539034897        1.53977806482471
H            1.16875771584981       -5.75556700736244        0.37849310506881
H            4.08527739436685       -6.09583790139312        2.60286899327867
H            3.42031237686299       -4.54579137836579        3.13089368789145
H            4.90351300307473       -4.59303403443637        2.17955956799962
H            0.72868777299277       -3.55504129208598        0.73605751243664
H           -0.72091238891417       -3.55657995513069       -0.73889117737703
H           -4.06889393388424       -6.10724886345471       -2.60677365561335
H           -3.40453729854859       -4.55770822131747       -3.13705566586379
H           -4.89017137925446       -4.60441265938987       -2.18947624983984
H           -4.79439864125237       -5.20868903397055        0.28922762097132
H           -3.24706349672107       -5.60914768853604        1.03199593184053
H           -3.99169492582674       -6.72421912296235       -0.11906178908256
H           -1.20165675569330       -5.30972296294903       -2.09024630761244
H           -1.99442336224217       -6.78273418837580       -1.53636048269840
H           -1.15845379888541       -5.75685703169313       -0.37568790671836
H           -4.96437890535410       -3.09875472185634       -0.50224266724164
H           -4.68265104464818       -0.73978550584723       -0.07450724593175
H           -3.49299645711103        1.54997616749278        2.22689852489099
H           -5.52271198026015        2.88253427916451        2.41562156493405
H           -7.76812105677612        3.26542325567449        2.42263366548212
H           -6.80966910506212        4.74761564036895        2.25013471441165
H           -8.50570563919204        4.72883506619991        1.78222012294037
H           -7.92104351050332        5.62728945554090       -0.41065983772947
H           -6.19026824220296        5.59188920842781       -0.06180560919381
H           -6.81934833120944        4.78670341050092       -1.49824368842306
H           -8.51056866540468        1.99066611818102        0.35404784041893
H           -8.20367572963287        2.65234692554026       -1.25047555754255
H           -9.30599934769860        3.48286160483422       -0.15584784370458
H           -6.02081149170045        2.69495617412264       -1.82997435007567
H           -3.98886510238262        1.35400263303103       -2.00196498214979
H           -2.13230884044203        3.22944756207204       -0.00320478362095
H           -0.00301616016596        4.45095963620533        0.00037361373313
H            2.12823619533143        3.23277761676895        0.00130637948510
H            3.49202047096318        1.55619292122018       -2.23274768355483
H            5.51878723426067        2.89345346670368       -2.42017393331755
