  102
       -132.73055772
 C          7.7160661003        3.8923467441       -1.9158804472
 C          7.2444319922        3.6946613793       -0.4727615849
 C          7.0033441364        5.0784805806        0.1467752859
 C          8.3543629374        2.9647768845        0.2972452958
 C          5.9624830376        2.8823255463       -0.3808563568
 C          5.4152167563        2.6075146976        0.8712538027
 C          4.2554881513        1.8713761797        1.0072668925
 C          3.6044435630        1.3855196145       -0.1194463923
 N          2.4061835435        0.6244289365        0.0043718890
 C          2.5169478694       -0.7404709343        0.1870553478
 C          3.7908156727       -1.3100654143        0.3166278908
 C          3.9419554588       -2.6506399819        0.5736818427
 C          2.8364221183       -3.4893227810        0.7370840082
 C          3.0531534823       -4.9549164745        1.0796107137
 C          3.8894851096       -5.6140229480       -0.0262556062
 C          1.7394971220       -5.7309272314        1.2045468101
 C          3.7969654981       -5.0510216790        2.4187955955
 C          1.5881187736       -2.9231399041        0.5724569975
 C          1.3803988774       -1.5732542953        0.2590811691
 B          0.0002324494       -0.9288751557        0.0111924027
 C         -1.3777158306       -1.5765951961       -0.2402368105
 C         -1.5802862926       -2.9267638116       -0.5556281058
 C         -2.8259207778       -3.4948032243       -0.7335457937
 C         -3.0359875677       -4.9587852827       -1.0870130501
 C         -3.7325397422       -5.0450859137       -2.4521538713
 C         -3.9131379228       -5.6203971584       -0.0148770184
 C         -1.7213415921       -5.7390003206       -1.1679297641
 C         -3.9343664889       -2.6577592930       -0.5819354338
 C         -3.7879821154       -1.3176386560       -0.3195976770
 C         -2.5164420100       -0.7461472210       -0.1762697306
 N         -2.4097110715        0.6187131123        0.0095394826
 C         -3.6103924939        1.3771268871        0.1267766601
 C         -4.1475638354        1.6404441075        1.3765601817
 C         -5.3131833714        2.3782112499        1.4946849459
 C         -5.9714691068        2.8715269852        0.3748281681
 C         -7.2545565629        3.6829372938        0.4592798482
 C         -7.7245907767        3.8962641647        1.9007236321
 C         -7.0175906693        5.0606518496       -0.1753729837
 C         -8.3634343276        2.9419766064       -0.3014815447
 C         -5.4160719182        2.5984294295       -0.8740688303
 C         -4.2543590358        1.8642333381       -1.0035202751
 C         -1.2160636749        1.3072699038        0.0135344788
 C         -1.2091692542        2.7034343268        0.0290316965
 C         -0.0049639247        3.3791975066        0.0107001065
 C          1.2008368121        2.7063320722       -0.0090943626
 C          1.2109562029        1.3102031604        0.0046436543
 C         -0.0016726206        0.5888772613        0.0097033860
 C          4.1320218477        1.6527822208       -1.3724389378
 C          5.2964168080        2.3913693039       -1.4970947823
 H          6.9750010288        4.4322668274       -2.5005638637
 H          7.9229197167        2.9379832958       -2.3943910437
 H          8.6347595237        4.4751916483       -1.9193938349
 H          6.2042097480        5.5932270992       -0.3827025198
 H          6.7237312165        5.0015417265        1.1938031228
 H          7.9063958862        5.6811096915        0.0788880479
 H          8.1045821464        2.8580097702        1.3491141559
 H          9.2871655684        3.5196673274        0.2238995836
 H          8.5097926910        1.9716015969       -0.1192321224
 H          5.8987970451        2.9718484824        1.7646751884
 H          3.8460498678        1.6666211287        1.9857032169
 H          4.6713388635       -0.6915833454        0.2276918023
 H          4.9436988577       -3.0427889859        0.6691625192
 H          4.8639187747       -5.1431399272       -0.1193932640
 H          4.0406818446       -6.6688859424        0.1942909663
 H          3.3777415921       -5.5306284581       -0.9829245810
 H          1.1124840674       -5.3153918940        1.9897832727
 H          1.9525494018       -6.7680300467        1.4567803025
 H          1.1937727210       -5.7186569637        0.2645708132
 H          3.9590539080       -6.0932345524        2.6866470093
 H          3.2133816386       -4.5780451577        3.2060920557
 H          4.7634859742       -4.5573023151        2.3687814204
 H          0.7102814850       -3.5268358725        0.7131676082
 H         -0.7000760964       -3.5288513735       -0.6878105377
 H         -3.8909511491       -6.0850797742       -2.7305691760
 H         -3.1190031427       -4.5717672374       -3.2160976054
 H         -4.6971981150       -4.5454287515       -2.4331336002
 H         -4.8925885615       -5.1539896160        0.0396301332
 H         -3.4400129746       -5.5356784544        0.9613326363
 H         -4.0515189880       -6.6756791364       -0.2416006512
 H         -1.0688065866       -5.3292479369       -1.9351602802
 H         -1.9295225239       -6.7765602974       -1.4222922099
 H         -1.2052916149       -5.7238034188       -0.2112824996
 H         -4.9343636843       -3.0507790909       -0.6908369327
 H         -4.6703689454       -0.7007485901       -0.2384507467
 H         -3.6484185769        1.2643190117        2.2575887713
 H         -5.6995547818        2.5604077629        2.4837803386
 H         -7.9348789298        2.9474900268        2.3888646082
 H         -6.9807662593        4.4391793008        2.4792261139
 H         -8.6411946803        4.4824406305        1.8988623984
 H         -7.9203271827        5.6638062297       -0.1077159634
 H         -6.2152825631        5.5807045700        0.3440198127
 H         -6.7448220008        4.9740221703       -1.2233383855
 H         -8.5210952696        1.9557176727        0.1305964751
 H         -8.1100379724        2.8177234006       -1.3507017555
 H         -9.2955252826        3.4994625995       -0.2397904160
 H         -5.8942646668        2.9632882394       -1.7701830642
 H         -3.8376105181        1.6624740523       -1.9795003955
 H         -2.1329845851        3.2601720762        0.0423493053
 H         -0.0062382668        4.4597783571        0.0115877566
 H          2.1233826472        3.2651945154       -0.0222553361
 H          3.6265501267        1.2787447617       -2.2507232351
 H          5.6751054932        2.5768042914       -2.4885418055
