  102
       -132.63885440
 C          7.5642641090        4.5088774594        0.8644929497
 C          7.2525944603        3.6832939313       -0.3866319892
 C          8.4168890460        2.7096771554       -0.6189819318
 C          7.1318248461        4.6440453625       -1.5781318758
 C          5.9618920408        2.8910903658       -0.2592681619
 C          5.1502462428        2.9398717330        0.8689722861
 C          3.9830277028        2.2025811448        0.9487455303
 C          3.5934931896        1.3875420370       -0.1067876629
 N          2.3985927548        0.6251571380       -0.0382757385
 C          2.5125075403       -0.7366326734        0.1805299391
 C          3.7729416972       -1.2743621334        0.4517296618
 C          3.9332041177       -2.6231941292        0.7075924072
 C          2.8302296599       -3.4826950451        0.7352190917
 C          3.0434062145       -4.9541748858        1.0462763376
 C          4.0163593188       -5.5513645246        0.0194900811
 C          1.7461906564       -5.7652862249        0.9944805892
 C          3.6359372353       -5.0827848717        2.4568809891
 C          1.5832662314       -2.9363280714        0.4874135567
 C          1.3677152954       -1.5834550344        0.1732354142
 B         -0.0054028079       -0.9510813142       -0.0853749954
 C         -1.3802387339       -1.5971009959       -0.2991027111
 C         -1.6007155588       -2.9493103134       -0.6124171687
 C         -2.8536540216       -3.5368627845       -0.6459877284
 C         -3.0723350315       -5.0066969842       -0.9599671906
 C         -3.9669023699       -5.1190610694       -2.2029393427
 C         -3.7594411383       -5.6829420753        0.2350900666
 C         -1.7668715774       -5.7554020421       -1.2398877008
 C         -3.9570364146       -2.7292673095       -0.3491238850
 C         -3.8028238195       -1.3732451470       -0.1278573795
 C         -2.5395280452       -0.7773811937       -0.1677986623
 N         -2.4299251321        0.5965697672       -0.0674350986
 C         -3.6061986598        1.3712756286        0.0768510902
 C         -3.8453779822        2.0579153533        1.2626844978
 C         -4.9843047945        2.8262539831        1.4104385432
 C         -5.9188469667        2.9420395006        0.3859585065
 C         -7.1807858198        3.7798333204        0.5054030663
 C         -7.1464977680        4.8857753824       -0.5591469794
 C         -8.4046809268        2.8802934957        0.2809383998
 C         -7.3215549863        4.4412606917        1.8789591916
 C         -5.6608323418        2.2535863602       -0.8007847814
 C         -4.5305310947        1.4810376220       -0.9596186600
 C         -1.2248506291        1.2849216745       -0.1537823403
 C         -1.2299748689        2.6723071471       -0.3154655578
 C         -0.0312968175        3.3645526771       -0.4114947560
 C          1.1771202662        2.6841447064       -0.3214909169
 C          1.1909628476        1.2996686826       -0.1392709654
 C         -0.0132657738        0.5640797959       -0.1022698955
 C          4.3935590970        1.3286906088       -1.2429890908
 C          5.5538031700        2.0710895762       -1.3116322982
 H          7.6790523615        3.8695143007        1.7366245898
 H          6.7825261263        5.2398035608        1.0570963470
 H          8.4979169669        5.0480223686        0.7185082601
 H          8.4887122228        2.0054662661        0.2072993361
 H          8.2856666670        2.1447357025       -1.5374581174
 H          9.3541735277        3.2573757507       -0.6879746920
 H          6.9660865289        4.1051692872       -2.5067856214
 H          8.0433415380        5.2286298074       -1.6812112910
 H          6.2987387211        5.3274664672       -1.4272880046
 H          5.4186008186        3.5545861606        1.7121435781
 H          3.3671190406        2.2508485784        1.8350092457
 H          4.6428154924       -0.6361056317        0.4803204476
 H          4.9270847700       -2.9918694716        0.9081181697
 H          4.1683004094       -6.6103549856        0.2183209842
 H          3.6133496333       -5.4424068917       -0.9853191965
 H          4.9825533027       -5.0565632239        0.0545411465
 H          1.0297949816       -5.4052274328        1.7288304450
 H          1.9607525950       -6.8089528231        1.2166504335
 H          1.3014120340       -5.7156333442        0.0038596477
 H          3.7922346069       -6.1307291948        2.7049967505
 H          2.9565334618       -4.6508134880        3.1888039797
 H          4.5893385329       -4.5674402548        2.5316140051
 H          0.7103313652       -3.5581197285        0.5509318227
 H         -0.7311205208       -3.5382160299       -0.8382675757
 H         -4.1370416628       -6.1650343035       -2.4501464462
 H         -3.4891414044       -4.6356934289       -3.0526702860
 H         -4.9304870020       -4.6450693266       -2.0386853163
 H         -4.7279762283       -5.2363320260        0.4403135372
 H         -3.1427322816       -5.5846040163        1.1261019499
 H         -3.9081298045       -6.7416432557        0.0321683429
 H         -1.2427527479       -5.3244343666       -2.0894161025
 H         -1.9872504266       -6.7957742293       -1.4715748474
 H         -1.1168795092       -5.7351724950       -0.3693094615
 H         -4.9517262132       -3.1448351889       -0.3087532505
 H         -4.6810608369       -0.7784741864        0.0696515147
 H         -3.1303368586        1.9817843520        2.0688335711
 H         -5.1323643438        3.3357375313        2.3480506419
 H         -7.1006564563        4.4691079757       -1.5612269088
 H         -8.0392801439        5.5029404510       -0.4867579036
 H         -6.2751885311        5.5207193518       -0.4139458748
 H         -8.4183080689        2.0750714940        1.0122992663
 H         -9.3190107454        3.4595910769        0.3882273229
 H         -8.3972404450        2.4389630628       -0.7115991875
 H         -6.4944687679        5.1194457075        2.0744789055
 H         -7.3670685125        3.6956536594        2.6691448711
 H         -8.2427766284        5.0192846760        1.9091343873
 H         -6.3530987610        2.3220093419       -1.6258863680
 H         -4.3483986637        0.9594266809       -1.8878715847
 H         -2.1594489096        3.2155082188       -0.3872094360
 H         -0.0364315017        4.4319040445       -0.5650333165
 H          2.0981006080        3.2369430291       -0.4219525578
 H          4.0959754717        0.6961483701       -2.0663703060
 H          6.1496348675        2.0068907603       -2.2090079683
