  62
        -93.45092336
 C          2.1708716114       -4.4651968986        1.8817945124
 C          1.0301210319       -4.5648191672        1.1462824519
 B          0.4303373174       -3.3087054043        0.5349482123
 C          1.1848932145       -1.9989989097        0.8100761103
 C          0.6995118714       -0.8123662829        0.2657802024
 C         -0.6355549504       -0.7519555936       -0.2546213657
 C         -1.3310400756        0.4496015019       -0.0938922566
 C         -2.7481672750        0.4995310419       -0.0499201943
 C         -3.4468828964        1.6323534417        0.2638727668
 C         -4.9107937720        1.6454751368        0.3005305843
 C         -5.6442014273        0.9007503212       -0.6232020477
 C         -7.0253872572        0.9171870145       -0.6015797502
 C         -7.6992739860        1.6722259470        0.3442138221
 C         -6.9816200932        2.4102907935        1.2704756778
 C         -5.5997768899        2.4011992581        1.2482728958
 C         -2.6923922040        2.7929095129        0.6019158921
 C         -1.3420865884        2.7385759330        0.5846329591
 N         -0.6508241258        1.6273342720        0.2048760603
 C          0.7371676126        1.6497334594        0.0892155187
 C          1.4425788719        2.8363249937       -0.1190124231
 C          2.8137605411        2.8251869851       -0.2352329592
 C          3.5257478144        1.6230495211       -0.1956904053
 C          4.9865040395        1.6049012341       -0.3493306782
 C          5.6239006435        2.4582634281       -1.2473757815
 C          6.9995525069        2.4377623051       -1.3819998662
 C          7.7616959835        1.5690821102       -0.6189956052
 C          7.1385924422        0.7161551788        0.2767416023
 C          5.7630032261        0.7309664961        0.4092918861
 C          2.8198475324        0.4426663762       -0.0266292085
 C          1.4353750447        0.4294960213        0.1550791329
 C         -1.2486031845       -1.9408805716       -0.8142607869
 C         -2.2263231521       -1.8355517303       -1.8132676339
 C         -2.8059094924       -2.9601798266       -2.3565259802
 C         -2.4124401955       -4.2210369690       -1.9224086760
 C         -1.4007457267       -4.3347005636       -0.9936938936
 C         -0.7796584905       -3.2165230322       -0.4289107388
 C          2.3365111825       -2.0411912564        1.6425977301
 C          2.7967438592       -3.2194129055        2.1460430067
 H          2.6278339524       -5.3443757552        2.3252886987
 H          0.5972340413       -5.5538503721        1.0405156952
 H         -3.2738356881       -0.4297134060       -0.1930956952
 H         -5.1263713772        0.3233392274       -1.3749699154
 H         -7.5795622073        0.3405807847       -1.3272522887
 H         -8.7787815771        1.6845103812        0.3600359572
 H         -7.5016537925        2.9951678029        2.0149831794
 H         -5.0508446051        2.9631011057        1.9897271817
 H         -3.1889806100        3.7045494304        0.8878776366
 H         -0.7488630307        3.5830108931        0.8953334547
 H          0.9207074921        3.7747521547       -0.2277698305
 H          3.3417567669        3.7566918090       -0.3716791550
 H          5.0354130207        3.1249724856       -1.8609144016
 H          7.4795845525        3.1006118682       -2.0873634765
 H          8.8364727954        1.5558490538       -0.7233877402
 H          7.7276801011        0.0372112218        0.8756341362
 H          5.2853286073        0.0731541934        1.1202656616
 H          3.3382338809       -0.5008259613       -0.0906024331
 H         -2.4907869433       -0.8624044811       -2.2062179905
 H         -3.5526368067       -2.8620920732       -3.1324582776
 H         -2.8782291773       -5.1032303760       -2.3389450842
 H         -1.0628482587       -5.3164679829       -0.6953852663
 H          2.8135036947       -1.1185353108        1.9544367076
 H          3.6598817349       -3.2161761772        2.8000770997
  62
        -93.45079072
 C          2.1633462987       -4.5122820099        1.8051327471
 C          1.0261271246       -4.5959343334        1.0621354939
 B          0.4304132647       -3.3267955649        0.4740348151
 C          1.1836478146       -2.0238493135        0.7815703708
 C          0.6993445932       -0.8255184783        0.2637788196
 C         -0.6326431386       -0.7518569255       -0.2645288618
 C         -1.3302073986        0.4434156335       -0.0704416213
 C         -2.7478652161        0.4967857316       -0.0418292635
 C         -3.4459029213        1.6168072491        0.3144125228
 C         -4.9107626077        1.6440495643        0.3285371393
 C         -5.6468835993        0.5191320254        0.6987553743
 C         -7.0282035248        0.5532546109        0.6991056152
 C         -7.6986066643        1.7067323934        0.3260567015
 C         -6.9776413331        2.8292087928       -0.0456309388
 C         -5.5959143907        2.8008532607       -0.0411276748
 C         -2.6939906918        2.7586285205        0.7166043701
 C         -1.3439035075        2.7007564840        0.7123192715
 N         -0.6526963140        1.6086600943        0.2804353745
 C          0.7347636885        1.6389677664        0.1649376014
 C          1.4360540119        2.8338794080       -0.0044179022
 C          2.8062424009        2.8284964506       -0.1318347404
 C          3.5200532567        1.6265751578       -0.1401868683
 C          4.9777594786        1.6166600159       -0.3214050510
 C          5.5931428880        2.5006873898       -1.2052109049
 C          6.9650241844        2.4867982589       -1.3737987307
 C          7.7457914786        1.5936581054       -0.6592315809
 C          7.1447809138        0.7104441204        0.2221146752
 C          5.7726787478        0.7187239669        0.3884397447
 C          2.8183744927        0.4399013972        0.0002616959
 C          1.4350976364        0.4191305278        0.1890360618
 C         -1.2376072773       -1.9286058454       -0.8600510568
 C         -2.2027621979       -1.8028643820       -1.8687803905
 C         -2.7736556953       -2.9165366346       -2.4435568373
 C         -2.3844271596       -4.1861687923       -2.0321310208
 C         -1.3842420329       -4.3187001947       -1.0936012874
 C         -0.7716201105       -3.2121779435       -0.4973251717
 C          2.3329798528       -2.0840543824        1.6162771221
 C          2.7895138380       -3.2728773993        2.0974914111
 H          2.6172193715       -5.4007162214        2.2328404412
 H          0.5933145011       -5.5823716890        0.9337472370
 H         -3.2763204043       -0.4115947328       -0.2760978498
 H         -5.1329004470       -0.3782540811        1.0094577289
 H         -7.5851866273       -0.3237533380        0.9939812402
 H         -8.7780504711        1.7308787430        0.3256461979
 H         -7.4944793067        3.7304017996       -0.3414561256
 H         -5.0423446699        3.6749447390       -0.3520594827
 H         -3.1935948998        3.6388424920        1.0845047239
 H         -0.7500930466        3.5215670669        1.0804611173
 H          0.9105630569        3.7739231722       -0.0762955989
 H          3.3321062094        3.7648247621       -0.2408557396
 H          4.9894992945        3.1863386508       -1.7819811297
 H          7.4272122233        3.1746334058       -2.0668361202
 H          8.8178573441        1.5854981844       -0.7894942760
 H          7.7488569114        0.0126008041        0.7833927211
 H          5.3130713335        0.0365463051        1.0883700702
 H          3.3375992423       -0.5004886468       -0.0952282591
 H         -2.4664512969       -0.8229389015       -2.2443896195
 H         -3.5109040711       -2.8012664232       -3.2259094270
 H         -2.8432696627       -5.0596496607       -2.4739892266
 H         -1.0477003256       -5.3061467216       -0.8129530656
 H          2.8114736858       -1.1686705909        1.9466035456
 H          3.6498164208       -3.2841126930        2.7551573456
  62
        -93.45059708
 C          2.1501569165       -4.4194236853        2.0118943336
 C          1.0218212438       -4.5385877926        1.2601152764
 B          0.4275702423       -3.2974516366        0.6141196959
 C          1.1753709233       -1.9797926467        0.8702521821
 C          0.6958950734       -0.8074473278        0.2900898960
 C         -0.6354130546       -0.7621608425       -0.2434393655
 C         -1.3325919507        0.4431061807       -0.1208012340
 C         -2.7498106111        0.4942559827       -0.0742553426
 C         -3.4462380667        1.6355170145        0.2131806809
 C         -4.9095839122        1.6508277041        0.2705568160
 C         -5.5811441792        2.4302453807        1.2115585203
 C         -6.9623062342        2.4429549800        1.2571763280
 C         -7.6967339843        1.6842611778        0.3612407434
 C         -7.0402349156        0.9055552877       -0.5776114531
 C         -5.6595051852        0.8855557899       -0.6222579828
 C         -2.6907419484        2.8071511262        0.5086605804
 C         -1.3406466865        2.7530984434        0.4847360087
 N         -0.6521460189        1.6293302590        0.1396561657
 C          0.7358111427        1.6463572648        0.0245430229
 C          1.4390430582        2.8239078154       -0.2350378484
 C          2.8110408876        2.8108334539       -0.3391567041
 C          3.5232704259        1.6122313793       -0.2406214194
 C          4.9859803624        1.5976067687       -0.3843052806
 C          5.7615935400        2.5927352170        0.2062748786
 C          7.1381606717        2.5791085752        0.0811304239
 C          7.7612819228        1.5754216916       -0.6412302490
 C          6.9992694561        0.5829553068       -1.2349045867
 C          5.6230746541        0.5906523095       -1.1057044239
 C          2.8195418520        0.4383585999       -0.0282789666
 C          1.4334691410        0.4298615341        0.1438998698
 C         -1.2428283118       -1.9645750555       -0.7789085336
 C         -2.2148605636       -1.8830473543       -1.7857768018
 C         -2.7826365523       -3.0207918512       -2.3138786540
 C         -2.3838374891       -4.2713971183       -1.8556074285
 C         -1.3803368244       -4.3622833812       -0.9157156781
 C         -0.7711635948       -3.2303684001       -0.3654940468
 C          2.3153927468       -2.0006478878        1.7196850540
 C          2.7689018008       -3.1664597901        2.2575259545
 H          2.6014862219       -5.2871663116        2.4827487092
 H          0.5921319515       -5.5306875460        1.1704134292
 H         -3.2761662349       -0.4386171282       -0.1892474972
 H         -5.0188480568        3.0083808439        1.9298836736
 H         -7.4682485121        3.0461392464        1.9967690226
 H         -8.7757561150        1.6985801417        0.3958061063
 H         -7.6079314593        0.3130366139       -1.2798924637
 H         -5.1552608168        0.2897160839       -1.3685543465
 H         -3.1868103889        3.7271255408        0.7674661324
 H         -0.7451267103        3.6071205270        0.7633330514
 H          0.9136656978        3.7520832713       -0.4006872425
 H          3.3362587052        3.7290155183       -0.5544844827
 H          5.2824393266        3.3682599585        0.7865234654
 H          7.7276908718        3.3530152817        0.5510107427
 H          8.8366076053        1.5664122545       -0.7404032812
 H          7.4800574542       -0.2007064813       -1.8019718756
 H          5.0334999464       -0.1779168692       -1.5835493131
 H          3.3454736572       -0.5026164777       -0.0104569388
 H         -2.4838661545       -0.9186000758       -2.1967083812
 H         -3.5236397648       -2.9411152113       -3.0973722831
 H         -2.8390022557       -5.1637264883       -2.2620894272
 H         -1.0387524109       -5.3364470511       -0.5973346724
 H          2.7909429618       -1.0721537336        2.0152774462
 H          3.6224018764       -3.1454465271        2.9235129161
  62
        -93.45047068
 C          2.1401512886       -4.5084146088       -1.8226238913
 C          1.0118809695       -4.5915104176       -1.0660384746
 B          0.4245150492       -3.3222329786       -0.4703834407
 C          1.1738440844       -2.0184884138       -0.7860377647
 C          0.6959961717       -0.8206652460       -0.2595387573
 C         -0.6311575520       -0.7498975808        0.2820531058
 C         -1.3301601428        0.4468792870        0.1021711603
 C         -2.7478444714        0.4945924128        0.0677021083
 C         -3.4481502903        1.6182392581       -0.2714857612
 C         -4.9129652135        1.6353442079       -0.3072982032
 C         -5.6140706867        2.7698161476        0.0992343851
 C         -6.9958132872        2.7872987148        0.0778552724
 C         -7.6997625701        1.6772119677       -0.3582962327
 C         -7.0129206078        0.5463463219       -0.7686249981
 C         -5.6316015412        0.5221692380       -0.7410508519
 C         -2.6993032025        2.7731121046       -0.6401420695
 C         -1.3489117330        2.7189385353       -0.6355585714
 N         -0.6548907378        1.6181573020       -0.2308068678
 C          0.7339265901        1.6441679293       -0.1294188466
 C          1.4382748917        2.8356005772        0.0523858922
 C          2.8109604506        2.8291073060        0.1510215623
 C          3.5229286279        1.6265343088        0.1268052698
 C          4.9849272088        1.6169171702        0.2780874825
 C          5.7694732024        2.5735966272       -0.3618652741
 C          7.1450127204        2.5618875410       -0.2241155361
 C          7.7581185270        1.5991506672        0.5598756894
 C          6.9871680618        0.6447238685        1.2024092513
 C          5.6123110706        0.6503830433        1.0610780707
 C          2.8186125816        0.4423136287       -0.0146542252
 C          1.4323567334        0.4235875369       -0.1822115713
 C         -1.2335510055       -1.9273975406        0.8774375567
 C         -2.1951933686       -1.8023884372        1.8898731947
 C         -2.7594071707       -2.9165504253        2.4700348850
 C         -2.3669396610       -4.1859658034        2.0607456792
 C         -1.3721813926       -4.3175447934        1.1163367267
 C         -0.7672060229       -3.2103685971        0.5135033283
 C          2.3129720909       -2.0796073293       -1.6349125503
 C          2.7631737254       -3.2691005083       -2.1211464529
 H          2.5882934531       -5.3968914133       -2.2563789055
 H          0.5793054139       -5.5774748266       -0.9330741350
 H         -3.2740443642       -0.4206427542        0.2802551274
 H         -5.0729004694        3.6330925731        0.4586432709
 H         -7.5262070855        3.6701969694        0.4034725834
 H         -8.7791521809        1.6933880424       -0.3784372197
 H         -7.5567416116       -0.3204180740       -1.1140901361
 H         -5.1030964209       -0.3568353340       -1.0792494048
 H         -3.2015296228        3.6611537687       -0.9851257789
 H         -0.7575522534        3.5504861842       -0.9829032921
 H          0.9134813284        3.7724687315        0.1615263209
 H          3.3366283382        3.7591929293        0.3056318187
 H          5.2990056806        3.3167382985       -0.9896186746
 H          7.7418079379        3.3057354075       -0.7318928878
 H          8.8325290940        1.5918014057        0.6686443571
 H          7.4597143691       -0.1076102514        1.8168638848
 H          5.0156995547       -0.0873387139        1.5772472961
 H          3.3443839974       -0.4982217050        0.0215446682
 H         -2.4616482377       -0.8223527954        2.2633071655
 H         -3.4939018407       -2.8018970362        3.2550903513
 H         -2.8198294957       -5.0598932617        2.5078220745
 H         -1.0340786992       -5.3045630343        0.8360564981
 H          2.7906262878       -1.1665119168       -1.9719655349
 H          3.6160617020       -3.2792781713       -2.7881501798
