  62
        -93.45092336
 C          2.1708716114       -4.4651968986        1.8817945124
 C          1.0301210319       -4.5648191672        1.1462824519
 B          0.4303373174       -3.3087054043        0.5349482123
 C          1.1848932145       -1.9989989097        0.8100761103
 C          0.6995118714       -0.8123662829        0.2657802024
 C         -0.6355549504       -0.7519555936       -0.2546213657
 C         -1.3310400756        0.4496015019       -0.0938922566
 C         -2.7481672750        0.4995310419       -0.0499201943
 C         -3.4468828964        1.6323534417        0.2638727668
 C         -4.9107937720        1.6454751368        0.3005305843
 C         -5.6442014273        0.9007503212       -0.6232020477
 C         -7.0253872572        0.9171870145       -0.6015797502
 C         -7.6992739860        1.6722259470        0.3442138221
 C         -6.9816200932        2.4102907935        1.2704756778
 C         -5.5997768899        2.4011992581        1.2482728958
 C         -2.6923922040        2.7929095129        0.6019158921
 C         -1.3420865884        2.7385759330        0.5846329591
 N         -0.6508241258        1.6273342720        0.2048760603
 C          0.7371676126        1.6497334594        0.0892155187
 C          1.4425788719        2.8363249937       -0.1190124231
 C          2.8137605411        2.8251869851       -0.2352329592
 C          3.5257478144        1.6230495211       -0.1956904053
 C          4.9865040395        1.6049012341       -0.3493306782
 C          5.6239006435        2.4582634281       -1.2473757815
 C          6.9995525069        2.4377623051       -1.3819998662
 C          7.7616959835        1.5690821102       -0.6189956052
 C          7.1385924422        0.7161551788        0.2767416023
 C          5.7630032261        0.7309664961        0.4092918861
 C          2.8198475324        0.4426663762       -0.0266292085
 C          1.4353750447        0.4294960213        0.1550791329
 C         -1.2486031845       -1.9408805716       -0.8142607869
 C         -2.2263231521       -1.8355517303       -1.8132676339
 C         -2.8059094924       -2.9601798266       -2.3565259802
 C         -2.4124401955       -4.2210369690       -1.9224086760
 C         -1.4007457267       -4.3347005636       -0.9936938936
 C         -0.7796584905       -3.2165230322       -0.4289107388
 C          2.3365111825       -2.0411912564        1.6425977301
 C          2.7967438592       -3.2194129055        2.1460430067
 H          2.6278339524       -5.3443757552        2.3252886987
 H          0.5972340413       -5.5538503721        1.0405156952
 H         -3.2738356881       -0.4297134060       -0.1930956952
 H         -5.1263713772        0.3233392274       -1.3749699154
 H         -7.5795622073        0.3405807847       -1.3272522887
 H         -8.7787815771        1.6845103812        0.3600359572
 H         -7.5016537925        2.9951678029        2.0149831794
 H         -5.0508446051        2.9631011057        1.9897271817
 H         -3.1889806100        3.7045494304        0.8878776366
 H         -0.7488630307        3.5830108931        0.8953334547
 H          0.9207074921        3.7747521547       -0.2277698305
 H          3.3417567669        3.7566918090       -0.3716791550
 H          5.0354130207        3.1249724856       -1.8609144016
 H          7.4795845525        3.1006118682       -2.0873634765
 H          8.8364727954        1.5558490538       -0.7233877402
 H          7.7276801011        0.0372112218        0.8756341362
 H          5.2853286073        0.0731541934        1.1202656616
 H          3.3382338809       -0.5008259613       -0.0906024331
 H         -2.4907869433       -0.8624044811       -2.2062179905
 H         -3.5526368067       -2.8620920732       -3.1324582776
 H         -2.8782291773       -5.1032303760       -2.3389450842
 H         -1.0628482587       -5.3164679829       -0.6953852663
 H          2.8135036947       -1.1185353108        1.9544367076
 H          3.6598817349       -3.2161761772        2.8000770997
