  88
  -137.002800530300       0.478506142664765      !
 C          5.0633905261        2.2997713883       -2.3785847011
 C          5.1053656454        1.5820400195       -3.5639923756
 N          4.5994808545        0.3667825879       -3.6905448179
 C          4.0249239407       -0.1804192058       -2.6352723709
 C          3.9165791185        0.4431573851       -1.3956359522
 C          3.1933671780       -0.2137686173       -0.2614308076
 C          1.6727141755        0.0141262278       -0.4116838468
 C          1.3600851664        1.4720929500       -0.2908855293
 N          1.9435336504        2.3171145851        0.5185431168
 C          1.3099417120        3.5200334141        0.3144684189
 C          1.5059102175        4.7577027140        0.9180253277
 C          0.6767070115        5.7909893938        0.5357640517
 C         -0.3265618814        5.6141823208       -0.4204783520
 C         -0.5344396824        4.3967520051       -1.0367654517
 C          0.2956678422        3.3525516641       -0.6624442709
 N          0.3771795169        2.0406780158       -1.0414485794
 N          0.9516433932       -0.8244748592        0.5380422691
 C          0.7754103002       -0.2865930214        1.8835419033
 C          1.0358622717       -1.3642694994        2.9574228531
 C          2.3605614787       -2.0191640862        2.7213015597
 C          2.4638530507       -3.2764922844        2.1405015681
 C          3.7172189847       -3.8106971949        1.8917251914
 C          4.8306311373       -3.0603827876        2.2373123394
 N          4.7490779299       -1.8685085678        2.8029465098
 C          3.5505044166       -1.3679472092        3.0355157005
 C         -0.5896645837        0.3043365122        2.0573127158
 N         -1.6742592746       -0.3817358117        2.2930874861
 C         -2.7097977632        0.5189526719        2.2318838277
 C         -4.0801798572        0.3326153502        2.3716588430
 C         -4.8939953653        1.4317039350        2.1987296016
 C         -4.3741850056        2.6922910180        1.8975032083
 C         -3.0164698899        2.9033369048        1.7677069031
 C         -2.1946435134        1.8029354602        1.9413659478
 N         -0.8380179048        1.6318438749        1.8563579288
 C         -0.1074332845       -1.6770287429        0.0452867251
 C          0.4269055652       -2.7071803537       -0.9798814738
 C         -0.6576646826       -3.6909051175       -1.2964300988
 C         -1.5097196794       -3.5051017548       -2.3801278859
 C         -2.5444999017       -4.4005073678       -2.5910335250
 C         -2.6933018910       -5.4544857934       -1.7019833884
 N         -1.8900822894       -5.6454851642       -0.6695908289
 C         -0.9042720329       -4.7890765764       -0.4777577869
 C         -1.3121409526       -0.9885128320       -0.5340915982
 N         -1.3246783930       -0.0242156310       -1.4142046398
 C         -2.6492680523        0.2756961683       -1.6341093908
 C         -3.2299739164        1.2447602196       -2.4425664819
 C         -4.6062609760        1.3295483013       -2.4415369402
 C         -5.3940215716        0.4767256505       -1.6660925663
 C         -4.8346296677       -0.4950033477       -0.8615769394
 C         -3.4530902835       -0.5810898739       -0.8518660348
 N         -2.5681064502       -1.3858821025       -0.1841700204
 C          4.4569923714        1.7183141128       -1.2775668247
 H          5.4921834375        3.2882958563       -2.3183464845
 H          5.5635651238        1.9914014201       -4.4548375004
 H          3.6317142564       -1.1791392981       -2.7858929169
 H          3.3793942072       -1.2887636934       -0.2577806933
 H          3.5240213133        0.2047294571        0.6881587551
 H          1.3702959199       -0.2906164684       -1.4164890523
 H          2.2785360261        4.8923552687        1.6583777631
 H          0.8004648468        6.7645272103        0.9865037856
 H         -0.9540020613        6.4535042786       -0.6814495599
 H         -1.3123576481        4.2581764442       -1.7719111318
 H         -0.2825892355        1.4817099360       -1.5818460384
 H          1.5215472996        0.5048486002        1.9994220665
 H          0.2308038022       -2.0984903546        2.9416717925
 H          1.0221848355       -0.8718965755        3.9314050231
 H          1.5704803911       -3.8345797390        1.8973770057
 H          3.8281381536       -4.7860083477        1.4425002954
 H          5.8328705302       -3.4277196930        2.0612689762
 H          3.5374998824       -0.3925769436        3.5062412052
 H         -4.4840387360       -0.6401608517        2.6051296693
 H         -5.9638142505        1.3197022309        2.2940406498
 H         -5.0537016770        3.5203872510        1.7633250027
 H         -2.6085255046        3.8750313497        1.5324728813
 H         -0.1525169339        2.3533523745        1.6968550664
 H         -0.4696566240       -2.2366106854        0.9142919290
 H          1.2931300369       -3.2039149566       -0.5415705526
 H          0.7352905020       -2.1985615015       -1.8932823797
 H         -1.3629456161       -2.6672473331       -3.0475639591
 H         -3.2202057268       -4.2808992553       -3.4235931303
 H         -3.4877268214       -6.1796353271       -1.8164839195
 H         -0.2727427706       -4.9933600411        0.3782884994
 H         -2.6232383152        1.9014207106       -3.0468369556
 H         -5.0919159594        2.0740700734       -3.0545081108
 H         -6.4677592057        0.5835226646       -1.6976140183
 H         -5.4429208459       -1.1527991411       -0.2605428624
 H         -2.7900541280       -2.0468508744        0.5413482325
 H          4.3907729009        2.2437413213       -0.3364035935
  88
  -137.002667369600       0.415614888348855      !
 C          4.2015537945       -0.3155230325       -4.4140414448
 C          4.4662245686        1.0452011944       -4.3813457569
 N          4.1731252743        1.8122163045       -3.3449838888
 C          3.5891790470        1.2552181565       -2.3001498162
 C          3.2451092703       -0.0930202910       -2.2304268354
 C          2.5160729369       -0.6492469024       -1.0455918801
 C          0.9910574941       -0.4004685452       -1.1804581578
 C          0.7029091403        1.0700367371       -1.0680669610
 N          0.5466599412        1.7624596642        0.0281523742
 C          0.2840755775        3.0535044222       -0.3666660936
 C         -0.0081068036        4.1827578727        0.3872539336
 C         -0.2564301231        5.3541380685       -0.2963173347
 C         -0.2088316991        5.4148379637       -1.6901844990
 C          0.0827126312        4.3034918949       -2.4544967350
 C          0.3188927494        3.1205376233       -1.7755859291
 N          0.6031140419        1.8444356062       -2.1843999290
 N          0.2516362060       -1.2759117835       -0.2959087464
 C          0.5241705625       -1.2115280889        1.1358644208
 C          0.8795242780       -2.6194406943        1.6662785190
 C          1.4937294071       -2.5163167351        3.0275950762
 C          0.7332698175       -2.6408808831        4.1846825990
 C          1.3478433249       -2.4914139055        5.4165498618
 C          2.7072596373       -2.2202319123        5.4462178166
 N          3.4434691445       -2.1008647853        4.3546443110
 C          2.8498058368       -2.2451492971        3.1842134140
 C         -0.5913846259       -0.6354205928        1.9495555100
 N         -1.5662362195       -1.3108548924        2.5024817323
 C         -2.3534469212       -0.3719385580        3.1268226044
 C         -3.5304574132       -0.5182834029        3.8530977579
 C         -4.1296458579        0.6271680984        4.3331900614
 C         -3.5853706234        1.8933886406        4.1045436252
 C         -2.4152733194        2.0614084414        3.3921243485
 C         -1.8027336158        0.9167240391        2.9085237361
 N         -0.6674768465        0.7030374523        2.1770043225
 C         -1.1160927638       -1.6014463260       -0.6874568873
 C         -1.1519538169       -2.5067522247       -1.9418220529
 C         -0.0441867087       -3.5130412497       -1.9198396360
 C         -0.0112690251       -4.5494845571       -0.9936956479
 C          1.0726490160       -5.4107944697       -0.9774455996
 C          2.0964496385       -5.1999355150       -1.8888118777
 N          2.0676183709       -4.2351308916       -2.7922750364
 C          1.0214930096       -3.4284723192       -2.8086645692
 C         -1.9222603513       -0.3639525029       -0.9399989664
 N         -1.8174877920        0.3752506696       -2.0102853558
 C         -2.5960413468        1.4828292741       -1.7800759051
 C         -2.8226560463        2.6082477058       -2.5635517424
 C         -3.6195181815        3.6016848731       -2.0366858039
 C         -4.1919682268        3.4909800263       -0.7677845663
 C         -3.9951142041        2.3752804285        0.0203316967
 C         -3.1918622686        1.3764171858       -0.5026588365
 N         -2.7587953652        0.1748074789       -0.0060452497
 C          3.5769876514       -0.8917400821       -3.3199943970
 H          4.4765656693       -0.9103591743       -5.2711399945
 H          4.9405493623        1.5474097664       -5.2140420026
 H          3.3891780902        1.9218888145       -1.4700468803
 H          2.6709025934       -1.7271906842       -0.9829322429
 H          2.8885727449       -0.1794432562       -0.1343653010
 H          0.7005519724       -0.6909237606       -2.1948585614
 H         -0.0373145974        4.1397346989        1.4648562405
 H         -0.4925118762        6.2508445026        0.2568294546
 H         -0.4071438252        6.3564126323       -2.1795475944
 H          0.1202453953        4.3508893858       -3.5316646477
 H          0.6272023019        1.5147910411       -3.1340862386
 H          1.3878379425       -0.5574131906        1.2761352562
 H          1.5766075978       -3.0828607575        0.9669483874
 H         -0.0310009111       -3.2148383012        1.7139176901
 H         -0.3253385137       -2.8423684470        4.1114447281
 H          0.7846188001       -2.5823315802        6.3325987954
 H          3.2357246933       -2.0928106871        6.3819436761
 H          3.4948855686       -2.1428352211        2.3194955720
 H         -3.9529094856       -1.4954785723        4.0268145420
 H         -5.0459941256        0.5488856450        4.8993470438
 H         -4.0958997203        2.7606186330        4.4964811075
 H         -1.9973196483        3.0394958295        3.2104817644
 H         -0.0959921827        1.3678336388        1.6478589920
 H         -1.5492209223       -2.1426707774        0.1583503611
 H         -1.0804135136       -1.8821669818       -2.8326477175
 H         -2.1213477412       -3.0088924904       -1.9628497840
 H         -0.8261711139       -4.6804944155       -0.2965496622
 H          1.1260622374       -6.2239332791       -0.2701141028
 H          2.9754557073       -5.8305565769       -1.9050655226
 H          1.0331359692       -2.6690558053       -3.5815005567
 H         -2.3827457407        2.6963752594       -3.5440878927
 H         -3.8057245299        4.4940066428       -2.6154823246
 H         -4.8031728011        4.2998177814       -0.3965509891
 H         -4.4322020687        2.2850767979        1.0035230020
 H         -3.0035529698       -0.2269786221        0.8853114494
 H          3.3595460945       -1.9502236727       -3.3039848089
  88
  -137.001375110000       0.105878968986380      !
 C          4.0674134703       -1.8855481871       -3.3842334979
 C          4.8358159787       -2.3923506925       -2.3455216369
 N          4.8836221532       -1.8324901339       -1.1499106235
 C          4.1535193409       -0.7532358035       -0.9363944661
 C          3.3170764974       -0.1750481257       -1.8846948164
 C          2.4853191226        1.0271118232       -1.5601029711
 C          0.9709613134        0.7138749433       -1.5656735628
 C          0.2344329546        1.9040061277       -1.0273174941
 N          0.2107592323        2.2485410946        0.2286918673
 C         -0.6307434300        3.3312778837        0.3080528814
 C         -1.0600737170        4.0624741391        1.4088657480
 C         -1.9477568319        5.0925357459        1.1799361714
 C         -2.4007116224        5.4033225925       -0.1038344256
 C         -1.9845846491        4.6913555430       -1.2106103561
 C         -1.1001934353        3.6506749389       -0.9867866637
 N         -0.5076790525        2.7343314041       -1.8186714535
 N          0.6400692118       -0.5223401445       -0.8710974612
 C          0.9922011349       -0.6204831316        0.5304382222
 C          1.2166525360       -2.1088102699        0.9131528648
 C          1.9772743525       -2.2207689473        2.1978079921
 C          3.3603131321       -2.3710968484        2.2090626414
 C          4.0246893850       -2.4158131393        3.4239323550
 C          3.2793585325       -2.3027663122        4.5877479729
 N          1.9627750084       -2.1790610995        4.5922848647
 C          1.3341090183       -2.1478077198        3.4316214461
 C          0.0724416933        0.0109444701        1.5371895555
 N         -1.2301945064       -0.0761353794        1.5913146488
 C         -1.6137081099        0.6057645375        2.7226603409
 C         -2.8803385836        0.8642814842        3.2303210460
 C         -2.9590772455        1.5950201987        4.3977134239
 C         -1.8165207291        2.0576348463        5.0526497766
 C         -0.5496848098        1.8108321560        4.5612956212
 C         -0.4636346720        1.0848453066        3.3856508521
 N          0.5882438269        0.6713775058        2.6125563393
 C         -0.6215514674       -1.1287458444       -1.2985720790
 C         -0.3705377196       -2.1197043999       -2.4599371674
 C          0.0732335072       -3.4550870404       -1.9531324883
 C         -0.8090727948       -4.3014176303       -1.2876713940
 C         -0.3519651604       -5.5129464140       -0.7995185981
 C          0.9822721046       -5.8392656486       -0.9939700527
 N          1.8304395297       -5.0523767441       -1.6320314485
 C          1.3837880841       -3.8986650205       -2.0959629699
 C         -1.6620539800       -0.1261953812       -1.6940683907
 N         -1.9107537143        0.2944409157       -2.9074533356
 C         -2.9333977657        1.2030154071       -2.7736604761
 C         -3.5858333132        1.9768146841       -3.7270655782
 C         -4.5650615102        2.8418661453       -3.2859770720
 C         -4.8969557814        2.9503173405       -1.9333205009
 C         -4.2656734238        2.1905876046       -0.9701539269
 C         -3.2844222330        1.3148724354       -1.4045067227
 N         -2.4673515369        0.4347883049       -0.7533558411
 C          3.2929107005       -0.7627424596       -3.1447868550
 H          4.0731774138       -2.3604846416       -4.3534682664
 H          5.4390767568       -3.2804643602       -2.4729768261
 H          4.2522148518       -0.3162596400        0.0505446332
 H          2.7697547829        1.4340884414       -0.5886150627
 H          2.6558000021        1.8082405145       -2.3058386291
 H          0.6550416505        0.5592410998       -2.6032506315
 H         -0.7187580534        3.8184013800        2.4023264977
 H         -2.3071888773        5.6756260216        2.0148889098
 H         -3.0975534097        6.2180990080       -0.2314569555
 H         -2.3431955953        4.9203855082       -2.2024225359
 H         -0.6978281285        2.6077261184       -2.7993262583
 H          1.9554798910       -0.1154649218        0.6358802633
 H          1.7795294823       -2.5753783319        0.1036767555
 H          0.2541900741       -2.6129979329        1.0097204090
 H          3.9044096681       -2.4623906059        1.2797927712
 H          5.0959715048       -2.5377055535        3.4644558137
 H          3.7493600869       -2.3213159571        5.5621899937
 H          0.2555431738       -2.0656072889        3.4897671115
 H         -3.7646332286        0.5038237526        2.7277172112
 H         -3.9278296960        1.8168132813        4.8203600705
 H         -1.9289710858        2.6239176150        5.9651244525
 H          0.3336477943        2.1698702740        5.0674301579
 H          1.5580684584        0.8872841793        2.7650444722
 H         -1.0281966601       -1.6750277592       -0.4441638052
 H          0.3819972702       -1.7009838263       -3.1266422300
 H         -1.3010296565       -2.2251877067       -3.0196706917
 H         -1.8435489006       -4.0121383298       -1.1603134081
 H         -1.0142302130       -6.1899436532       -0.2819029359
 H          1.3918548826       -6.7718821667       -0.6294024968
 H          2.1149425765       -3.2917654716       -2.6135671416
 H         -3.3281986449        1.8961921785       -4.7718483557
 H         -5.0899552154        3.4575848839       -4.0020073026
 H         -5.6649093155        3.6492917800       -1.6371336415
 H         -4.5110799395        2.2803176247        0.0769815492
 H         -2.3151632220        0.2776681255        0.2479528366
 H          2.6807492759       -0.3411118987       -3.9300649928
