  71
  -109.960129558900       0.223217412917915      !
 C          0.9416397364        3.0905273982        1.7639699429
 C          0.5425105243        4.2258447573        1.0731612874
 N         -0.4236032483        4.2181852434        0.1711857623
 C         -1.0288977500        3.0752509352       -0.0883218591
 C         -0.7071234912        1.8673796902        0.5303434846
 C         -1.4190331729        0.6266752340        0.1876097848
 C         -2.8071282372        0.6281066200        0.1789828188
 C         -3.5212325424       -0.5339767592       -0.0904387509
 N         -4.9197864663       -0.5085994116       -0.1063075332
 C         -5.6998907136        0.3905868509       -0.8067707764
 C         -5.3169991552        1.4114391788       -1.6646872865
 C         -6.3132560501        2.1533459513       -2.2698055097
 C         -7.6608756811        1.8867061358       -2.0382074307
 C         -8.0480051801        0.8573951792       -1.2035612970
 C         -7.0646253999        0.0977230396       -0.5836551394
 C         -7.1001245016       -1.0304966770        0.3046389765
 C         -8.1308721990       -1.7506455677        0.8936433864
 C         -7.8100816695       -2.7920404444        1.7412473377
 C         -6.4817491990       -3.1096807579        2.0152856069
 C         -5.4389466750       -2.4084291291        1.4408010214
 C         -5.7551259719       -1.3756098319        0.5702388546
 C         -2.8321449357       -1.7173462395       -0.3429063665
 C         -1.4519260802       -1.7216212915       -0.3378592498
 C         -0.7256859644       -0.5609170113       -0.0896940566
 C          0.7437005647       -0.5854236032       -0.1496651151
 C          1.4674106347       -1.5589672479        0.5337618836
 C          2.8482211901       -1.5505450032        0.5242363474
 C          3.5345017132       -0.5709626828       -0.1875658353
 N          4.9329115106       -0.5238470446       -0.1679102980
 C          5.6868314053        0.5952171620        0.1259392552
 C          5.2718796549        1.8645843772        0.5028043556
 C          6.2459944025        2.8059812189        0.7749022943
 C          7.6016122865        2.4973022859        0.6842467009
 C          8.0197257646        1.2296603063        0.3319671814
 C          7.0595820260        0.2655064740        0.0543088377
 C          7.1271321274       -1.1225015173       -0.3092114398
 C          8.1781579643       -1.9979199471       -0.5482894535
 C          7.8870040338       -3.2980915589       -0.9099989676
 C          6.5682520510       -3.7258030415       -1.0472955199
 C          5.5055442885       -2.8737125808       -0.8151504309
 C          5.7919351596       -1.5718459415       -0.4305489371
 C          2.8167904037        0.3777818464       -0.9122399995
 C          1.4385069671        0.3701463007       -0.8891991312
 C          0.3037159326        1.8945335717        1.4898740917
 H          1.7283538675        3.1420910562        2.5008924647
 H          1.0100480312        5.1853625625        1.2488534554
 H         -1.8030811054        3.1183331706       -0.8443654583
 H         -3.3408909254        1.5356682641        0.4185971949
 H         -4.2755163974        1.6127240525       -1.8657436813
 H         -6.0409086097        2.9552496277       -2.9399458947
 H         -8.4095201387        2.4906227037       -2.5285856001
 H         -9.0922156673        0.6402695919       -1.0368759456
 H         -9.1601931646       -1.4939676354        0.6939427861
 H         -8.5965222989       -3.3652810117        2.2087529940
 H         -6.2617225983       -3.9194583119        2.6951644692
 H         -4.4128349919       -2.6499983039        1.6741552394
 H         -3.3817136623       -2.6195240579       -0.5645394299
 H         -0.9201513774       -2.6350283342       -0.5610772478
 H          0.9409664400       -2.3065941088        1.1094864107
 H          3.4022058395       -2.2858767344        1.0884676075
 H          4.2232711806        2.1085143284        0.5899185476
 H          5.9496365864        3.8023799706        1.0673937245
 H          8.3319500225        3.2620357862        0.9022376793
 H          9.0700563437        0.9866885070        0.2767954640
 H          9.2001505412       -1.6624950763       -0.4568892484
 H          8.6896861451       -3.9950218391       -1.0990740408
 H          6.3720010377       -4.7449393093       -1.3459252824
 H          4.4869511069       -3.2087672749       -0.9416074748
 H          3.3481922995        1.1138774281       -1.4962579304
 H          0.8905413568        1.1043043977       -1.4607329769
 H          0.5747116108        0.9910241718        2.0166197444
  71
  -109.960076668400       0.211067457902433      !
 C         -0.2251480310        3.6670143954        1.9632772627
 C          0.7921405766        4.0177795021        1.0892799911
 N          1.0667991629        3.3339931393       -0.0097668112
 C          0.3550779355        2.2567624506       -0.2722203921
 C         -0.6681025319        1.7823330215        0.5519164639
 C         -1.4098604588        0.5549907832        0.2234071876
 C         -2.7977674193        0.5813845155        0.2358541131
 C         -3.5368374214       -0.5408532369       -0.1203314858
 N         -4.9353102959       -0.4896826482       -0.1146896696
 C         -5.7105644814        0.4863780125       -0.7104231832
 C         -5.3252759018        1.5815090112       -1.4704210119
 C         -6.3190907171        2.3967544105       -1.9775474061
 C         -7.6669952736        2.1308827486       -1.7470518611
 C         -8.0572990639        1.0288895737       -1.0129836487
 C         -7.0766678487        0.1948630459       -0.4924113842
 C         -7.1181557024       -1.0157298659        0.2792290068
 C         -8.1528023503       -1.7752506508        0.8092246920
 C         -7.8379315170       -2.9011682523        1.5432847966
 C         -6.5112025676       -3.2640537277        1.7644161133
 C         -5.4647493265       -2.5247573571        1.2469851387
 C         -5.7754448348       -1.4062053515        0.4870938459
 C         -2.8728990671       -1.7086642069       -0.4866913617
 C         -1.4927532095       -1.7445614963       -0.4810463751
 C         -0.7426180465       -0.6284006714       -0.1259351738
 C          0.7268958254       -0.6932188045       -0.1027827226
 C          1.4368822016       -0.2457071866        1.0097787505
 C          2.8146084330       -0.2206881622        1.0017904505
 C          3.5158447365       -0.6383450211       -0.1271726348
 N          4.9099089552       -0.5308288947       -0.1559008857
 C          5.6187939688        0.6118770767        0.1611788094
 C          5.1510126173        1.8742074447        0.4983045621
 C          6.0868245735        2.8606048146        0.7436160927
 C          7.4539260213        2.6082488991        0.6487660885
 C          7.9228336170        1.3621016313        0.2844185284
 C          7.0022558351        0.3533482880        0.0315955416
 C          7.1242153691       -1.0161461892       -0.3843667931
 C          8.2089327363       -1.8388463067       -0.6573418883
 C          7.9706489219       -3.1479361686       -1.0256127686
 C          6.6714078970       -3.6435801287       -1.1091984839
 C          5.5758310538       -2.8450468506       -0.8417095330
 C          5.8080162857       -1.5222153316       -0.4934867874
 C          2.8156207942       -1.1374494220       -1.2213640768
 C          1.4351380386       -1.1701464468       -1.2020382523
 C         -0.9655692500        2.5298234063        1.6884263816
 H         -0.4284977462        4.2625729303        2.8396759146
 H          1.4140400199        4.8847906039        1.2673848751
 H          0.6046909093        1.7436539424       -1.1916165109
 H         -3.3121123751        1.4882948257        0.5170909379
 H         -4.2847793521        1.7870081891       -1.6725712771
 H         -6.0437027137        3.2574801567       -2.5690618098
 H         -8.4132408610        2.7938242662       -2.1585883433
 H         -9.1020344429        0.8128179619       -0.8480684363
 H         -9.1802340117       -1.4841336121        0.6516465925
 H         -8.6274012015       -3.5072317974        1.9620569771
 H         -6.2951132321       -4.1407275424        2.3569392111
 H         -4.4399205622       -2.8044877464        1.4399399184
 H         -3.4418150930       -2.5761450338       -0.7846755733
 H         -0.9804560268       -2.6573648858       -0.7480415860
 H          0.9009604774        0.0777755925        1.8897718320
 H          3.3596470363        0.1231275617        1.8676918270
 H          4.0938258166        2.0871906130        0.5505695673
 H          5.7494240505        3.8511705513        1.0096494750
 H          8.1527959930        3.4058124393        0.8521207282
 H          8.9814499003        1.1723015480        0.1908723166
 H          9.2162975831       -1.4589030919       -0.5778256120
 H          8.8002099501       -3.8033150708       -1.2444282515
 H          6.5171270112       -4.6761376878       -1.3856078310
 H          4.5733765305       -3.2428599836       -0.8921298551
 H          3.3565346274       -1.4660498134       -2.0960353283
 H          0.8956899048       -1.5277259119       -2.0672541781
 H         -1.7525550615        2.2082878575        2.3567137896
  71
  -109.959739634300       0.147751239002736      !
 C         -0.3521779326        3.8334630514        1.9072572438
 C          0.6406210403        4.2187269925        1.0195999951
 N          0.9345129214        3.5359274144       -0.0749681423
 C          0.2659234045        2.4275729640       -0.3208626966
 C         -0.7317990202        1.9210564428        0.5150609366
 C         -1.4337398607        0.6685836987        0.1956804968
 C         -2.8220153802        0.6454344510        0.2252969370
 C         -3.5252787473       -0.5014855678       -0.1244871841
 N         -4.9245839828       -0.5028878967       -0.1017545506
 C         -5.7433370729        0.4402361348       -0.6924054738
 C         -5.4083983987        1.5522965989       -1.4516081223
 C         -6.4383270635        2.3243012289       -1.9544343340
 C         -7.7726926090        2.0000377489       -1.7199132060
 C         -8.1124015707        0.8809728087       -0.9864739968
 C         -7.0948035901        0.0892951844       -0.4707080890
 C         -7.0813502223       -1.1246883862        0.2965424831
 C         -8.0806049890       -1.9314463055        0.8247393430
 C         -7.7152278785       -3.0471332201        1.5510288521
 C         -6.3733434080       -3.3532684264        1.7665996906
 C         -5.3614123166       -2.5659278269        1.2512903320
 C         -5.7223603201       -1.4575281335        0.4985627161
 C         -2.8248752807       -1.6437885778       -0.5032887717
 C         -1.4448010188       -1.6300796023       -0.5149600946
 C         -0.7297990707       -0.4887020564       -0.1659177569
 C          0.7411538604       -0.5220169629       -0.1526794881
 C          1.4522524318       -0.0875030080        0.9637245318
 C          2.8308532708       -0.0982875684        0.9688769701
 C          3.5322038645       -0.5337886280       -0.1530759005
 N          4.9306231189       -0.5090545977       -0.1575679269
 C          5.7127490796        0.5688418155        0.2091669491
 C          5.3313168165        1.8510668274        0.5786142241
 C          6.3303614258        2.7585409998        0.8748572990
 C          7.6773906064        2.4102424115        0.7985293657
 C          8.0623585102        1.1449799725        0.4027013361
 C          7.0768359303        0.2148667798        0.0986678238
 C          7.1096326430       -1.1468790588       -0.3568508094
 C          8.1389905295       -2.0361972335       -0.6354361653
 C          7.8165415252       -3.3138643449       -1.0473877032
 C          6.4873888341       -3.7136131848       -1.1669815591
 C          5.4459188127       -2.8471759977       -0.8947802050
 C          5.7634731161       -1.5538098425       -0.5053339539
 C          2.8285417983       -0.9881476418       -1.2648332455
 C          1.4480889427       -0.9910696120       -1.2563290276
 C         -1.0482638525        2.6649793393        1.6489036575
 H         -0.5707844302        4.4273686977        2.7811807810
 H          1.2260991973        5.1135439422        1.1830648308
 H          0.5288831452        1.9159072906       -1.2373139034
 H         -3.3646112615        1.5327963773        0.5158208517
 H         -4.3784854041        1.8029343571       -1.6571019505
 H         -6.2024233941        3.1964979571       -2.5460346183
 H         -8.5483283387        2.6304838382       -2.1281550209
 H         -9.1461320030        0.6193377175       -0.8184405362
 H         -9.1201397369       -1.6842949692        0.6711668921
 H         -8.4763727389       -3.6895797972        1.9677499083
 H         -6.1177374331       -4.2236022999        2.3527664648
 H         -4.3249380346       -2.8025395032        1.4397513576
 H         -3.3660179752       -2.5306039690       -0.7959068036
 H         -0.9035700305       -2.5234664794       -0.7903438615
 H          0.9167714413        0.2445888968        1.8408271275
 H          3.3752032043        0.2216665551        1.8443682729
 H          4.2912184762        2.1381021097        0.6178192939
 H          6.0599862997        3.7622289945        1.1676479880
 H          8.4276375605        3.1478485853        1.0417689948
 H          9.1061350212        0.8806396625        0.3246650166
 H          9.1688566322       -1.7310567297       -0.5270657570
 H          8.6019742756       -4.0195553012       -1.2731258781
 H          6.2656104705       -4.7244372386       -1.4761068703
 H          4.4195408051       -3.1730642194       -0.9719979235
 H          3.3688257732       -1.3153114287       -2.1403178732
 H          0.9076262347       -1.3266142231       -2.1296988820
 H         -1.8164394160        2.3184762861        2.3265477122
  71
  -109.959494006900       0.113932753691025      !
 C         -0.4203439689        2.9664701790        3.1736635788
 C          0.5463037530        3.6760362147        2.4775474479
 N          0.8461455214        3.4360292033        1.2115414396
 C          0.2091919935        2.4642394794        0.5903601877
 C         -0.7643480916        1.6647331847        1.1927097811
 C         -1.4433269281        0.5969222330        0.4436077548
 C         -2.8309510312        0.5419305700        0.4573754871
 C         -3.5156776879       -0.4116887611       -0.2866830608
 N         -4.9148819350       -0.4427410893       -0.2703683837
 C         -5.7494049422        0.6360075042       -0.4895262251
 C         -5.4328587929        1.9490361959       -0.8073552518
 C         -6.4754783011        2.8339337171       -1.0059245250
 C         -7.8040980893        2.4285072288       -0.9007412389
 C         -8.1253144035        1.1181994774       -0.6078374279
 C         -7.0948132141        0.2099997796       -0.4040650660
 C         -7.0605535162       -1.1959301325       -0.1125910845
 C         -8.0449774924       -2.1513913204        0.1025502746
 C         -7.6593377285       -3.4453112907        0.3905227325
 C         -6.3120806353       -3.7883581833        0.4798820749
 C         -5.3145036806       -2.8556003964        0.2698018820
 C         -5.6959741276       -1.5589523273       -0.0437211714
 C         -2.7975643051       -1.3276161437       -1.0507825947
 C         -1.4178262283       -1.2873986054       -1.0516793894
 C         -0.7211114174       -0.3382606024       -0.3100921281
 C          0.7508973275       -0.3562270499       -0.3043978130
 C          1.4595923117       -0.3697608250        0.8945094737
 C          2.8390795303       -0.3868110743        0.8985731582
 C          3.5416163954       -0.3932528700       -0.3034844520
 N          4.9412790795       -0.4078925187       -0.3061911030
 C          5.7549644917        0.4452500188       -1.0247582778
 C          5.4134043003        1.5286813505       -1.8213945637
 C          6.4385543185        2.2433038761       -2.4109883027
 C          7.7740488014        1.8998572076       -2.2112844843
 C          8.1204824450        0.8380153336       -1.3999642538
 C          7.1077215856        0.1046811436       -0.7955702343
 C          7.0995459872       -1.0155262787        0.1031803064
 C          8.1008878415       -1.7938318740        0.6686311268
 C          7.7395051741       -2.8387538138        1.4953065263
 C          6.3989846604       -3.1200065298        1.7497488665
 C          5.3847845404       -2.3607977937        1.1980273499
 C          5.7422396521       -1.2956918783        0.3838210432
 C          2.8398673422       -0.3919624337       -1.5058519781
 C          1.4597731121       -0.3768071810       -1.5023816777
 C         -1.0865922304        1.9453743462        2.5180139682
 H         -0.6434579426        3.2031066727        4.2024836435
 H          1.1042926703        4.4756580911        2.9458649385
 H          0.4766173263        2.3164490294       -0.4477033395
 H         -3.3878835651        1.2556496694        1.0462104653
 H         -4.4071282325        2.2702023750       -0.9102027883
 H         -6.2544182069        3.8619627928       -1.2521293392
 H         -8.5902029562        3.1510288557       -1.0610913799
 H         -9.1547318714        0.7998627297       -0.5429793882
 H         -9.0889096093       -1.8820834788        0.0484648290
 H         -8.4089923445       -4.2038072722        0.5594699674
 H         -6.0408174413       -4.8054210240        0.7214581948
 H         -4.2733330894       -3.1272647996        0.3589151549
 H         -3.3245564085       -2.0572895353       -1.6464502688
 H         -0.8622023271       -2.0105897983       -1.6307001163
 H          0.9221882912       -0.3720706384        1.8313770067
 H          3.3813478401       -0.3790647571        1.8319076380
 H          4.3823886314        1.8143866891       -1.9654927719
 H          6.1990861667        3.0902260317       -3.0368701250
 H          8.5459843657        2.4820963633       -2.6920670068
 H          9.1556588372        0.5823882480       -1.2311681896
 H          9.1390162523       -1.5850271203        0.4587448419
 H          8.5025919808       -3.4547837311        1.9470393517
 H          6.1463831167       -3.9529164373        2.3891749721
 H          4.3486037700       -2.5982819268        1.3868064218
 H          3.3829680365       -0.4155600424       -2.4387460358
 H          0.9208978987       -0.3669934876       -2.4388821100
 H         -1.8359793441        1.3566193693        3.0291217239
  71
  -109.959469675200       0.111036693084409      !
 C          0.7954866141        3.6962423468        0.6147662460
 C          0.3651562080        4.5031921258       -0.4287519445
 N         -0.5748864311        4.1370370296       -1.2828685322
 C         -1.1255787123        2.9477056234       -1.1349382354
 C         -0.7724912464        2.0469964663       -0.1301490383
 C         -1.4381163473        0.7404225978       -0.0206260123
 C         -2.8256821917        0.6948230088       -0.0443618069
 C         -3.5053163859       -0.5098296253        0.0948488941
 N         -4.9029150797       -0.5345871759        0.0546009080
 C         -5.6913674229        0.0679008003       -0.9067581114
 C         -5.3188355751        0.7689941167       -2.0444790258
 C         -6.3219592502        1.2510191797       -2.8633174779
 C         -7.6666525663        1.0360999080       -2.5698231750
 C         -8.0431193545        0.3163085633       -1.4537337139
 C         -7.0525717932       -0.1772714219       -0.6151017769
 C         -7.0777379643       -0.9617958193        0.5876290089
 C         -8.1027858293       -1.4863452671        1.3635671821
 C         -7.7746451035       -2.1903347495        2.5048168376
 C         -6.4449860162       -2.3597171884        2.8840179421
 C         -5.4079026750       -1.8475890072        2.1279507156
 C         -5.7303077966       -1.1618378598        0.9657456574
 C         -2.7802568044       -1.6853616125        0.2737339194
 C         -1.4012810037       -1.6426490961        0.3031304030
 C         -0.7087399987       -0.4453384342        0.1457739737
 C          0.7625011563       -0.4581615707        0.1197857692
 C          1.4799427919       -1.1234648972        1.1107714786
 C          2.8599894405       -1.1473290125        1.0900453720
 C          3.5548488435       -0.5020939712        0.0706274872
 N          4.9543063125       -0.5205584303        0.0484765954
 C          5.7841822544       -0.2016264800        1.1051411040
 C          5.4630551307        0.2553018318        2.3753271923
 C          6.5016450452        0.5304409205        3.2441740482
 C          7.8315825524        0.3660375509        2.8634938033
 C          8.1580545050       -0.0646728386        1.5931856602
 C          7.1314396857       -0.3474528427        0.7019991957
 C          7.1030954844       -0.7827368021       -0.6662928047
 C          8.0918535877       -1.1077955423       -1.5855838256
 C          7.7121968889       -1.5241372943       -2.8457939020
 C          6.3663642178       -1.6328001587       -3.1889017918
 C          5.3646897403       -1.3154028868       -2.2916143256
 C          5.7403239509       -0.8729170120       -1.0313639642
 C          2.8439328381        0.1568455408       -0.9294944670
 C          1.4647211041        0.1726600555       -0.9050783411
 C          0.2149287988        2.4502813243        0.7668062443
 H          1.5611714514        4.0372092708        1.2940174987
 H          0.7849155439        5.4870108743       -0.5895517962
 H         -1.8795894017        2.6881995984       -1.8675514595
 H         -3.3860993058        1.6128680987       -0.1383826784
 H         -4.2796326250        0.9231234781       -2.2928343755
 H         -6.0569004418        1.8034957521       -3.7524482061
 H         -8.4209296255        1.4316367269       -3.2331616216
 H         -9.0844497427        0.1342858044       -1.2352163704
 H         -9.1335250854       -1.3395769055        1.0784699503
 H         -8.5562859796       -2.6086668562        3.1209972216
 H         -6.2192314483       -2.8997579153        3.7915483448
 H         -4.3819352963       -1.9678976980        2.4418169324
 H         -3.3001977069       -2.6266145274        0.3658548629
 H         -0.8419236749       -2.5596790195        0.4178497843
 H          0.9482428693       -1.6171149274        1.9115380078
 H          3.4076803988       -1.6766637520        1.8553994071
 H          4.4361083795        0.4028473959        2.6744635091
 H          6.2772235022        0.8842318001        4.2396297193
 H          8.6145612145        0.5888979861        3.5726854815
 H          9.1886929013       -0.1767101563        1.2923864421
 H          9.1342944176       -1.0392895379       -1.3137531938
 H          8.4649789639       -1.7794182063       -3.5764649437
 H          6.0992720693       -1.9764665513       -4.1772917262
 H          4.3247447444       -1.4209138147       -2.5617413212
 H          3.3794654240        0.6658417817       -1.7165488009
 H          0.9226114641        0.6750477591       -1.6924658730
 H          0.5090568685        1.7981074130        1.5764155218
  71
  -109.959387930100       0.101835470015589      !
 C         -0.4328641870        1.2925552061        4.1140506737
 C          0.5483279542        2.2235231693        3.8091165193
 N          0.8628303244        2.5608775118        2.5691266578
 C          0.2263899683        1.9699958992        1.5783240599
 C         -0.7609028607        0.9992243959        1.7590581659
 C         -1.4406046981        0.3773472279        0.6132065590
 C         -2.8281396418        0.3337498042        0.5997220331
 C         -3.5176573395       -0.1975609315       -0.4842424933
 N         -4.9153413826       -0.2557786048       -0.4608001889
 C         -5.7679203853        0.1778504089       -1.4570447438
 C         -5.4762042816        0.8031620952       -2.6606929693
 C         -6.5341080588        1.1630620115       -3.4735576636
 C         -7.8540527928        0.9184655248       -3.1012003268
 C         -8.1514882549        0.3192130987       -1.8936771372
 C         -7.1051582711       -0.0517022192       -1.0595336509
 C         -7.0467191194       -0.6603941907        0.2400558408
 C         -8.0131419697       -1.1259192118        1.1219065787
 C         -7.6046087416       -1.6947876694        2.3115992999
 C         -6.2515496529       -1.8178376517        2.6192921715
 C         -5.2720697037       -1.3619217832        1.7580336282
 C         -5.6768849471       -0.7650988917        0.5727472674
 C         -2.8038713299       -0.6729068803       -1.5810049689
 C         -1.4241717533       -0.6276104187       -1.5724443056
 C         -0.7220254732       -0.1230669986       -0.4819530219
 C          0.7489346304       -0.1625272357       -0.4798450300
 C          1.4437776685       -0.7045811344        0.5991848570
 C          2.8226276466       -0.7372742665        0.6069024096
 C          3.5400766838       -0.2308311865       -0.4737878330
 N          4.9393788004       -0.2498175084       -0.4661943841
 C          5.7596894944        0.8278167977       -0.7364290957
 C          5.4245979513        2.1455750508       -1.0126403970
 C          6.4547356121        3.0421529362       -1.2220878746
 C          7.7889773467        2.6473945185       -1.1511446175
 C          8.1285352698        1.3436795644       -0.8500968208
 C          7.1105745604        0.4238235126       -0.6353784029
 C          7.0947763479       -0.9700796939       -0.2900139071
 C          8.0921573603       -1.9115344347       -0.0732240988
 C          7.7244565636       -3.2075809004        0.2283059605
 C          6.3819418442       -3.5727729234        0.2996464743
 C          5.3716857485       -2.6540784468        0.0881187702
 C          5.7346905898       -1.3442099821       -0.1910116330
 C          2.8524241609        0.2942919450       -1.5644946388
 C          1.4724360737        0.3250535031       -1.5646835444
 C         -1.0980121659        0.6728532829        3.0702575754
 H         -0.6674595152        1.0551591729        5.1401114887
 H          1.1073102048        2.7271645274        4.5861857918
 H          0.5055777528        2.2914909298        0.5835724330
 H         -3.3832779880        0.7486819188        1.4279734525
 H         -4.4577142422        1.0141181253       -2.9501526384
 H         -6.3329758503        1.6483103143       -4.4171493301
 H         -8.6526638421        1.2122795708       -3.7657348814
 H         -9.1746735404        0.1444423933       -1.5972825062
 H         -9.0610942184       -1.0469992361        0.8754033759
 H         -8.3399492606       -2.0608465266        3.0122844723
 H         -5.9616739414       -2.2839556114        3.5494932930
 H         -4.2255048510       -1.4822627713        1.9946656415
 H         -3.3322392517       -1.0967591307       -2.4212796909
 H         -0.8723651913       -1.0212260856       -2.4135831279
 H          0.8954706285       -1.1074131906        1.4379079073
 H          3.3531616341       -1.1394429993        1.4565978329
 H          4.3942901809        2.4654765842       -1.0492154842
 H          6.2199030257        4.0733520588       -1.4407818292
 H          8.5650275020        3.3778538476       -1.3244444941
 H          9.1623866473        1.0414070979       -0.7777308003
 H          9.1323083995       -1.6315717670       -0.1444688516
 H          8.4843357531       -3.9545317850        0.4028599728
 H          6.1246447564       -4.5979579462        0.5217117205
 H          4.3345236140       -2.9514685152        0.1282689821
 H          3.4062336964        0.6675689794       -2.4128462752
 H          0.9460127736        0.7462603748       -2.4090308585
 H         -1.8586675643       -0.0706002714        3.2654296917
  71
  -109.959283267400       9.115897338589278E-002 !
 C         -0.4742207253        3.0911663911        3.0920416758
 C          0.4844432275        3.8145033062        2.3990707213
 N          0.7955156073        3.5751316399        1.1356419234
 C          0.1767188798        2.5922549271        0.5136541148
 C         -0.7890352671        1.7801868292        1.1120801520
 C         -1.4509980804        0.7063098235        0.3570762599
 C         -2.8369658100        0.6178078881        0.3859126096
 C         -3.5076645421       -0.3404036059       -0.3648556035
 N         -4.9027733210       -0.4329428364       -0.3087890557
 C         -5.7971365364        0.6111359668       -0.4429581388
 C         -5.5603607321        1.9502792564       -0.7186557748
 C         -6.6528093221        2.7895137662       -0.8278802894
 C         -7.9537256350        2.3146499221       -0.6773220171
 C         -8.1968815894        0.9788410785       -0.4280601995
 C         -7.1151494658        0.1158692950       -0.3134124633
 C         -7.0005273428       -1.2970414824       -0.0827980049
 C         -7.9277460052       -2.3071165086        0.1373276780
 C         -7.4686113351       -3.5904465430        0.3562523832
 C         -6.1038783318       -3.8693071303        0.3738138699
 C         -5.1625123019       -2.8813107404        0.1572194250
 C         -5.6186856822       -1.5943823049       -0.0897758221
 C         -2.7772058080       -1.2130216493       -1.1676372766
 C         -1.3990837680       -1.1431004503       -1.1802711703
 C         -0.7151057234       -0.2020328076       -0.4163991154
 C          0.7562383915       -0.2244523140       -0.3904269241
 C          1.4399006660       -0.2538787904        0.8230300578
 C          2.8174939226       -0.3115671122        0.8559102598
 C          3.5446981034       -0.3460696167       -0.3310511878
 N          4.9419731724       -0.4208014455       -0.2996379087
 C          5.8131421846        0.3959166198       -0.9925891413
 C          5.5427566643        1.4854282718       -1.8079705139
 C          6.6153715715        2.1555626529       -2.3643969820
 C          7.9286058530        1.7627358157       -2.1139248359
 C          8.2042315051        0.6945880055       -1.2840392858
 C          7.1427606723        0.0050995001       -0.7126264092
 C          7.0593295531       -1.1081638607        0.1908344797
 C          8.0088349774       -1.9199859161        0.7973168955
 C          7.5777623727       -2.9461498485        1.6140181871
 C          6.2190191849       -3.1769899311        1.8173185176
 C          5.2555865066       -2.3828635538        1.2253332257
 C          5.6830722149       -1.3348735367        0.4226143181
 C          2.8687849366       -0.3184350225       -1.5477445123
 C          1.4897788105       -0.2608353002       -1.5730832196
 C         -1.1213033602        2.0584166152        2.4355821596
 H         -0.7059096462        3.3264493124        4.1192719193
 H          1.0270420544        4.6241408022        2.8681970511
 H          0.4519588359        2.4460316205       -0.5226009385
 H         -3.4027241616        1.3047127150        0.9975766684
 H         -4.5578422013        2.3266510897       -0.8567594219
 H         -6.4937741760        3.8367238588       -1.0384847554
 H         -8.7803993788        3.0032883051       -0.7670876695
 H         -9.2052327352        0.6068197838       -0.3278009601
 H         -8.9845369898       -2.0871503969        0.1409861549
 H         -8.1726618376       -4.3910107746        0.5268581861
 H         -5.7732801969       -4.8795964918        0.5645325940
 H         -4.1069523380       -3.1053054256        0.1922850649
 H         -3.2942137917       -1.9371209291       -1.7786070886
 H         -0.8341992391       -1.8407858394       -1.7811464979
 H          0.8834539088       -0.2412224448        1.7485368958
 H          3.3401110285       -0.3194717504        1.8003566633
 H          4.5297101740        1.8098077869       -1.9906707865
 H          6.4316056368        3.0059349760       -3.0039909232
 H          8.7393102377        2.3112078552       -2.5698652577
 H          9.2218824402        0.4003768292       -1.0764310724
 H          9.0612838713       -1.7511637331        0.6264692849
 H          8.2997590246       -3.5876856493        2.0969241774
 H          5.9114283595       -3.9972467454        2.4490475986
 H          4.2048584942       -2.5810587960        1.3748849741
 H          3.4300075051       -0.3592971742       -2.4692373068
 H          0.9720714457       -0.2348859297       -2.5210539952
 H         -1.8633106082        1.4592044955        2.9452280183
