  71
       -110.39843856
 C          0.9416397364        3.0905273982        1.7639699429
 C          0.5425105243        4.2258447573        1.0731612874
 N         -0.4236032483        4.2181852434        0.1711857623
 C         -1.0288977500        3.0752509352       -0.0883218591
 C         -0.7071234912        1.8673796902        0.5303434846
 C         -1.4190331729        0.6266752340        0.1876097848
 C         -2.8071282372        0.6281066200        0.1789828188
 C         -3.5212325424       -0.5339767592       -0.0904387509
 N         -4.9197864663       -0.5085994116       -0.1063075332
 C         -5.6998907136        0.3905868509       -0.8067707764
 C         -5.3169991552        1.4114391788       -1.6646872865
 C         -6.3132560501        2.1533459513       -2.2698055097
 C         -7.6608756811        1.8867061358       -2.0382074307
 C         -8.0480051801        0.8573951792       -1.2035612970
 C         -7.0646253999        0.0977230396       -0.5836551394
 C         -7.1001245016       -1.0304966770        0.3046389765
 C         -8.1308721990       -1.7506455677        0.8936433864
 C         -7.8100816695       -2.7920404444        1.7412473377
 C         -6.4817491990       -3.1096807579        2.0152856069
 C         -5.4389466750       -2.4084291291        1.4408010214
 C         -5.7551259719       -1.3756098319        0.5702388546
 C         -2.8321449357       -1.7173462395       -0.3429063665
 C         -1.4519260802       -1.7216212915       -0.3378592498
 C         -0.7256859644       -0.5609170113       -0.0896940566
 C          0.7437005647       -0.5854236032       -0.1496651151
 C          1.4674106347       -1.5589672479        0.5337618836
 C          2.8482211901       -1.5505450032        0.5242363474
 C          3.5345017132       -0.5709626828       -0.1875658353
 N          4.9329115106       -0.5238470446       -0.1679102980
 C          5.6868314053        0.5952171620        0.1259392552
 C          5.2718796549        1.8645843772        0.5028043556
 C          6.2459944025        2.8059812189        0.7749022943
 C          7.6016122865        2.4973022859        0.6842467009
 C          8.0197257646        1.2296603063        0.3319671814
 C          7.0595820260        0.2655064740        0.0543088377
 C          7.1271321274       -1.1225015173       -0.3092114398
 C          8.1781579643       -1.9979199471       -0.5482894535
 C          7.8870040338       -3.2980915589       -0.9099989676
 C          6.5682520510       -3.7258030415       -1.0472955199
 C          5.5055442885       -2.8737125808       -0.8151504309
 C          5.7919351596       -1.5718459415       -0.4305489371
 C          2.8167904037        0.3777818464       -0.9122399995
 C          1.4385069671        0.3701463007       -0.8891991312
 C          0.3037159326        1.8945335717        1.4898740917
 H          1.7283538675        3.1420910562        2.5008924647
 H          1.0100480312        5.1853625625        1.2488534554
 H         -1.8030811054        3.1183331706       -0.8443654583
 H         -3.3408909254        1.5356682641        0.4185971949
 H         -4.2755163974        1.6127240525       -1.8657436813
 H         -6.0409086097        2.9552496277       -2.9399458947
 H         -8.4095201387        2.4906227037       -2.5285856001
 H         -9.0922156673        0.6402695919       -1.0368759456
 H         -9.1601931646       -1.4939676354        0.6939427861
 H         -8.5965222989       -3.3652810117        2.2087529940
 H         -6.2617225983       -3.9194583119        2.6951644692
 H         -4.4128349919       -2.6499983039        1.6741552394
 H         -3.3817136623       -2.6195240579       -0.5645394299
 H         -0.9201513774       -2.6350283342       -0.5610772478
 H          0.9409664400       -2.3065941088        1.1094864107
 H          3.4022058395       -2.2858767344        1.0884676075
 H          4.2232711806        2.1085143284        0.5899185476
 H          5.9496365864        3.8023799706        1.0673937245
 H          8.3319500225        3.2620357862        0.9022376793
 H          9.0700563437        0.9866885070        0.2767954640
 H          9.2001505412       -1.6624950763       -0.4568892484
 H          8.6896861451       -3.9950218391       -1.0990740408
 H          6.3720010377       -4.7449393093       -1.3459252824
 H          4.4869511069       -3.2087672749       -0.9416074748
 H          3.3481922995        1.1138774281       -1.4962579304
 H          0.8905413568        1.1043043977       -1.4607329769
 H          0.5747116108        0.9910241718        2.0166197444
