41
 energy: -69.968177994414 gnorm: 0.000025628064 xtb: 6.7.1 (edcfbbe)
C            5.33688602122646       -2.82351555426296       -0.10645905261557
O            3.95473157815327       -2.51585441883962       -0.09257644099957
C            3.57355398767650       -1.23306899771618       -0.05277685211989
C            4.41210894852951       -0.15701591862326       -0.02022301736522
C            3.92059071148398        1.18673846543662        0.01911322894226
O            4.61626164790926        2.18795456807941        0.04632633421549
O            2.56448639856247        1.36955503408632        0.02732484769135
C            1.70818361998172        0.32074294599783       -0.00043284210063
C            2.14797950063704       -1.00941872488790       -0.04446093312673
C            1.21393790121940       -2.06365914120204       -0.08928798065481
C           -0.13669544948695       -1.83033316045683       -0.07429660173920
C           -0.57627853940136       -0.50581295763366       -0.00738024591053
C            0.33588426305347        0.57569339139889        0.01344410959656
C           -0.44739848209035        1.77649866109898        0.04061621419255
C           -0.12754843404254        3.12888673840234        0.08012756896378
C           -1.15961751403831        4.04444692538411        0.11900253130557
C           -2.49115645753757        3.62906962659244        0.13057947806466
C           -2.83174876471843        2.29077049869000        0.09122037569208
C           -1.79984692707575        1.36417366792169        0.03191548625021
N           -1.85482350454008       -0.01656228074178        0.00304419209782
C           -3.03283912495351       -0.79023442628915       -0.00481749896963
C           -3.21707928199638       -1.78812538322465        0.94641722448581
C           -4.37379957984896       -2.54696794438139        0.93163588842099
C           -5.35245735122058       -2.30930846332781       -0.01967018769330
C           -5.17039532474935       -1.31169257893601       -0.96358178393614
C           -4.01287201617830       -0.55382259288634       -0.96288891163215
H            5.39109903387913       -3.90984670722610       -0.14016158716635
H            5.83080893864049       -2.45636752934147        0.79649303520903
H            5.82488684077342       -2.40122714794754       -0.98832285970329
H            5.48488367400783       -0.24813808134018       -0.02403879329864
H            1.59639570825585       -3.07013771863194       -0.13801336532976
H           -0.84109012403176       -2.64520471697436       -0.12176987255128
H            0.90545229711233        3.44159520798170        0.08373250722927
H           -0.93589716864102        5.10056847823367        0.14794676399730
H           -3.27378111039318        4.37202894454316        0.17414589058285
H           -3.86438866409369        1.97832608126099        0.11377504037204
H           -2.45933595606962       -1.95544103846155        1.69721612467117
H           -4.51367453514322       -3.32133190459942        1.67113607934843
H           -6.25565810192239       -2.90066266063051       -0.02552599515347
H           -5.92986376730056       -1.12569558140725       -1.70834825740920
H           -3.85667978518842        0.21300227143013       -1.70682778132766
