  44
        -74.34468537
 O          3.7388432674        2.3475431232        1.4652108420
 C          3.3840561649        1.3530074340        0.8172769517
 C          4.3296898251        0.4410231247        0.1867558203
 C          5.7002726319        0.7049081685        0.3313239447
 C          6.6363424925       -0.1285268741       -0.2286489679
 C          6.2303842074       -1.2510780761       -0.9541663561
 C          4.8946429346       -1.5262848454       -1.1073111783
 C          3.9212270661       -0.6847339150       -0.5454353568
 C          2.5221625155       -1.0284239139       -0.7521219798
 O          2.1581612380       -2.0201808484       -1.3980148692
 C          1.5768078567       -0.1119637121       -0.1268130393
 C          0.2117576616       -0.3836214883       -0.2610545353
 C         -0.7325212235        0.4484162174        0.3061676792
 N         -2.0900664877        0.1537655475        0.1599041906
 C         -2.6778167828       -1.0723699231        0.3964913504
 C         -2.1105116917       -2.2445413349        0.8791766356
 C         -2.9414437744       -3.3362880645        1.0539459587
 C         -4.3016329118       -3.2663125960        0.7664754012
 C         -4.8765139180       -2.0925565721        0.3071338901
 C         -4.0634347304       -0.9861766937        0.1233051665
 C         -4.3099013107        0.3655876240       -0.3110332656
 C         -5.4448305653        1.0446849347       -0.7219039228
 C         -5.3206984199        2.3714293045       -1.1017791202
 C         -4.0844675103        3.0110898775       -1.0877050228
 C         -2.9373195460        2.3531335752       -0.6824080509
 C         -3.0607833245        1.0306396017       -0.2752899416
 C         -0.3222409026        1.5941946503        1.0167231741
 C          1.0105562957        1.8715903418        1.1449318785
 C          1.9880880650        1.0170599719        0.6053631945
 H          5.9836779392        1.5783103467        0.8998177688
 H          7.6877632266        0.0842829111       -0.1059213268
 H          6.9676034136       -1.9035474857       -1.3979905467
 H          4.5507217900       -2.3855824337       -1.6636270379
 H         -0.0828377222       -1.2452337214       -0.8404163786
 H         -1.0594088653       -2.3021560588        1.1153476470
 H         -2.5245560769       -4.2610660053        1.4226143503
 H         -4.9175276366       -4.1404448510        0.9128467038
 H         -5.9341544093       -2.0376750586        0.0999588556
 H         -6.4025755825        0.5481856959       -0.7483830663
 H         -6.1936836309        2.9174982442       -1.4251982447
 H         -4.0169435191        4.0401722426       -1.4061528668
 H         -1.9777772406        2.8468297973       -0.6977368457
 H         -1.0648997978        2.2239956112        1.4821782521
 H          1.3603625953        2.7342131496        1.6926423182
