53
 energy: -91.470034227224 gnorm: 0.000200955917 xtb: 6.7.1 (edcfbbe)
O            4.05025730565782        1.55060998218843        1.59772072235864
C            3.23764268883314        0.89270839956441        0.96126745353255
C            1.79970064626126        1.02981482896511        1.13002775423869
C            1.30186977239086        1.91688884269398        2.10587911687433
C           -0.05092758896709        2.03608113324178        2.29733259550454
C           -0.95112365151311        1.30968209792101        1.51354902833765
C           -0.49374725177705        0.44630896287700        0.51099558876150
C           -1.35363838226893       -0.34085729391009       -0.30434796309191
N           -2.75061022625200       -0.20887806396682       -0.21382094704785
C           -3.38053136780530        0.98112679915156       -0.55121349085830
C           -2.67052873579486        2.09003496265911       -1.01571064023379
C           -3.32900677429484        3.25995568710826       -1.33641285076217
C           -4.70857811402202        3.34907067756501       -1.21643121551240
C           -5.43463269601777        2.24914666205013       -0.79840643202968
C           -4.78199638648358        1.06840352470649       -0.47479083442167
O           -5.55630188934383        0.00762421389728       -0.11126502108562
C           -4.93065430846602       -1.16379154284821        0.19146503947212
C           -5.73000850876888       -2.23706382310869        0.55438489752688
C           -5.15189799517259       -3.44250616775091        0.90914087718705
C           -3.77016604778496       -3.56641222638181        0.92711198616056
C           -2.96556455242944       -2.50397147371380        0.56717710494624
C           -3.52932391853324       -1.29172385635245        0.16299732542941
C           -0.82849476819447       -1.27464064077231       -1.22661139354924
C            0.51751865313692       -1.40799218874019       -1.39221010741382
C            1.41224567397682       -0.62548399430091       -0.61727571826197
C            0.91165507943116        0.28825908003280        0.33095623986554
C            2.83794363843501       -0.80013869878020       -0.80449876805633
O            3.31703342622802       -1.59834882868065       -1.60206530555351
N            3.66030787038243       -0.01818500244933        0.00086903508978
C            5.07112489161497       -0.17431106390544       -0.16886321060490
C            5.84685826437450       -0.61849725428274        0.89079918462580
C            7.21237852399852       -0.76210017628211        0.72379977474699
C            7.79884998282586       -0.47569593298398       -0.49706281879347
C            7.01809279572816       -0.03813845184875       -1.55338536655977
C            5.65347233819909        0.11932271429022       -1.39213440843369
H            2.01406725858429        2.47878688169258        2.68861883214231
H           -0.43680277073689        2.70477711941647        3.05231539043183
H           -2.01091690495266        1.42553326108616        1.68710501370236
H           -1.60074178834869        2.02410644723770       -1.12457555096111
H           -2.76051255689767        4.10661711392950       -1.68704184742077
H           -5.21928442720102        4.26635905745745       -1.46177337756308
H           -6.50938757201488        2.27654331970106       -0.71979034275908
H           -6.79925402226604       -2.10017637524742        0.55659704038644
H           -5.77769799196830       -4.27493330659493        1.18816578246957
H           -3.31418487979587       -4.49498316164622        1.23195089209821
H           -1.89259847744632       -2.59959251625055        0.60464512754810
H           -1.52039591755457       -1.83739592595466       -1.83679200685838
H            0.94080403195127       -2.08789762736909       -2.11367655081352
H            5.38154623501596       -0.84120403461652        1.83883274279485
H            7.81879461258072       -1.10362309697899        1.54973434425937
H            8.86488525511009       -0.59381532772456       -0.62557779741456
H            7.47296896519069        0.18654506753479       -2.50690845258341
H            5.03797997034056        0.46092963769831       -2.21021026421455
