53
 energy: -91.532703508560 gnorm: 0.000068776504 xtb: 6.7.1 (edcfbbe)
O            4.02612246178482        0.49359315185160        2.24036405554457
C            3.24405243845640        0.28236487811194        1.33804334947162
C            1.78267890299942        0.27569025403937        1.52925131365922
C            1.26376967110866        0.48956677012681        2.78916105772912
C           -0.11739920023888        0.47380863627129        2.99347185085574
C           -0.97452580284151        0.27111714544728        1.94249898504421
C           -0.48215913239239        0.06844727452110        0.63723015798926
C           -1.32825201480014       -0.16007451335867       -0.48420503195819
N           -2.72483158559744       -0.12484966447541       -0.32625040778011
C           -3.37470475358453        1.08111707740097       -0.03815521001371
C           -2.68511010439290        2.28051725561816        0.08789429866560
C           -3.35771698325748        3.45682560158901        0.37945241450925
C           -4.72972112986853        3.45633256424145        0.53384971365663
C           -5.43584982494531        2.27404686585822        0.37387670803863
C           -4.76973411564770        1.09693857045110        0.08381332086113
O           -5.53676077672591       -0.02680906214183       -0.08897769449060
C           -4.89267555605802       -1.18514401769143       -0.44333012030164
C           -5.68243394125802       -2.30015195951198       -0.65762448045200
C           -5.10224775423669       -3.51721233826930       -0.98040718955050
C           -3.72806570639367       -3.61370750545630       -1.07061058413137
C           -2.93192173032495       -2.49852768678543       -0.86073153190776
C           -3.49942750126941       -1.26520534739707       -0.56681213279975
C           -0.78167351938337       -0.42933250268327       -1.72333712934944
C            0.59755900338178       -0.44771749738436       -1.90697614907080
C            1.44929340693705       -0.20165357208791       -0.84782459153483
C            0.92177288040832        0.05072054406729        0.43509393810109
C            2.90289627284233       -0.21473585885159       -1.06933415157935
O            3.40617260201182       -0.43924579220913       -2.14986855964490
N            3.69116209700827        0.03889731942546        0.04681601813430
C            5.11166367480421        0.04082785485867       -0.15566184814213
C            5.89144284142712       -0.93448916716097        0.44445180042251
C            7.26096853001624       -0.92480006071673        0.24955938721570
C            7.84412960670985        0.04659458776068       -0.54603922788561
C            7.05755603164324        1.01497072862751       -1.14621948913199
C            5.68824660499916        1.01875543807017       -0.94986822155022
H            1.94626522676048        0.65972677445677        3.60806665938249
H           -0.50932841632490        0.62236432194173        3.98803547332822
H           -2.04083535405074        0.25957916783099        2.11075103882414
H           -1.61483572792080        2.29762092409564       -0.04504245562306
H           -2.79690781035610        4.37306210242777        0.47910852578791
H           -5.25702737020066        4.36825873842388        0.76444406768320
H           -6.50957585264489        2.24272786812756        0.46624781174612
H           -6.75090840334512       -2.19437232272259       -0.55971193555431
H           -5.72600593044525       -4.38096592081328       -1.14678791795288
H           -3.26054143530083       -4.55849107670756       -1.30041965236909
H           -1.85875589674706       -2.59211390291318       -0.91688514630914
H           -1.43855502277260       -0.60967084875927       -2.56146521010141
H            1.02238778210014       -0.63818765394460       -2.88078058188171
H            5.42755914027145       -1.68831067433939        1.06226464688485
H            7.87261152546470       -1.68103294949891        0.71837330805855
H            8.91316293244509        0.04889861453660       -0.69866451207974
H            7.51031709222997        1.77336084863955       -1.76722765001088
H            5.06669962749519        1.77006801705215       -1.41290308844083
