  126
       -186.61964965
 C          5.2900677624        9.6769900320        3.2198108748
 C          4.4593148550        8.8174945312        2.3131802187
 C          4.1832262390        7.4971495910        2.6851323156
 C          3.4276667073        6.6536677107        1.8963688808
 C          2.9475070715        7.1506185877        0.6933403506
 C          3.1824080985        8.4911311843        0.3152235032
 C          3.9467788303        9.3172145889        1.1292326583
 C          2.4888665055        8.6903019264       -0.9267032164
 C          2.3476047476        9.7752175698       -1.7825964562
 C          1.5948768887        9.6366994082       -2.9350238373
 C          1.4210675901       10.7838156439       -3.8863352925
 C          0.9953790014        8.4065484936       -3.2279843905
 C          1.1200889878        7.3112412750       -2.3978037745
 C          1.8636379369        7.4622779266       -1.2368447737
 N          2.1631362513        6.5359371379       -0.2593001591
 C          1.7333093397        5.1997418769       -0.2397893926
 C          0.3676324380        4.9290168594       -0.1936663352
 C         -0.0866852956        3.6287932907       -0.1586543991
 C          0.8278740154        2.5773617684       -0.1688368422
 C          0.3634371371        1.1926705070       -0.1171564999
 N          1.2784167820        0.2271414686       -0.1136714284
 C          0.8114613882       -1.0176249787       -0.0684847516
 C          1.7781414235       -2.1134999490       -0.0649918444
 C          1.3422895574       -3.4366751122       -0.0259456727
 C          2.2655465762       -4.4590025338       -0.0096442486
 C          3.6301892634       -4.1798378285       -0.0318937536
 N          4.5433817887       -5.2455751592        0.0004971834
 C          5.4750017674       -5.4876149806        0.9875756683
 C          5.6984041573       -4.8090621174        2.1768885930
 C          6.6916555643       -5.2814636608        3.0104014131
 C          7.4533769069       -6.4124684371        2.6963349135
 C          8.5206256599       -6.8662715136        3.6481812601
 C          7.2019207915       -7.1039837637        1.5248135548
 C          6.2081398029       -6.6514142663        0.6663800339
 C          5.6755482330       -7.1372785479       -0.5758446157
 C          5.9786050176       -8.2211733147       -1.3900244121
 C          5.2600137135       -8.4153414104       -2.5560882209
 C          5.5504966879       -9.5787624857       -3.4578247747
 C          4.2464591676       -7.5152030461       -2.9040008671
 C          3.9257902306       -6.4280897144       -2.1167335197
 C          4.6408526453       -6.2483164863       -0.9420240614
 C          4.0840522928       -2.8565541208       -0.1069504336
 C          5.5446591029       -2.5435092540       -0.2201785207
 C          3.1428530678       -1.8413430430       -0.1126891721
 N         -0.4814465535       -1.3263441646       -0.0235079322
 C         -1.3260621622       -0.2988536346       -0.0234756702
 C         -2.7571152004       -0.5878610012        0.0358474950
 C         -3.2074928840       -1.9044549708        0.1133652686
 C         -4.5594191369       -2.1600295126        0.1843912038
 C         -5.4780827119       -1.1128977857        0.1785154277
 N         -6.8478075112       -1.4075796721        0.2667682672
 C         -7.5687940202       -2.1539806139       -0.6422709065
 C         -7.1527017847       -2.7452850237       -1.8257988948
 C         -8.0960913388       -3.4214872450       -2.5722122785
 C         -9.4346813097       -3.5153563148       -2.1746500751
 C        -10.4057809825       -4.2664027700       -3.0371987028
 C         -9.8451292387       -2.9100620160       -1.0003741528
 C         -8.9169394550       -2.2245309913       -0.2269612829
 C         -8.9997697554       -1.4987456151        1.0097051779
 C        -10.0332070074       -1.2384453547        1.9005070501
 C         -9.7708570875       -0.5188367726        3.0526228608
 C        -10.8605559377       -0.2100495806        4.0365705356
 C         -8.4675618175       -0.0825975097        3.3154680852
 C         -7.4214949168       -0.3266890648        2.4491045099
 C         -7.6990166801       -1.0183310327        1.2788484805
 C         -5.0431597782        0.2140709010        0.0645149762
 C         -6.0219341932        1.3438139274       -0.0329584606
 C         -3.6810955764        0.4534411257        0.0046111902
 N         -0.9478677282        0.9756916665       -0.0722842789
 C          2.1906642534        2.8537842291       -0.2408505689
 C          2.6641705648        4.1536722556       -0.2875709053
 C          4.1303346154        4.4268682107       -0.4280373903
 H          6.2445482355        9.1976809168        3.4319590753
 H          4.7787087766        9.8329911303        4.1690460734
 H          5.4816315498       10.6465877661        2.7684796153
 H          4.5709695231        7.1325044784        3.6257802271
 H          3.2007422526        5.6470271445        2.2153463317
 H          4.1305471860       10.3420214228        0.8414207897
 H          2.8240932620       10.7158646849       -1.5480318309
 H          1.9081088858       10.5655251881       -4.8367550878
 H          0.3647843742       10.9581344273       -4.0867172787
 H          1.8529557097       11.6947505074       -3.4797657857
 H          0.4173525905        8.3158392889       -4.1365786256
 H          0.6556223394        6.3677534788       -2.6439245385
 H         -0.3270185458        5.7561324467       -0.1736127680
 H         -1.1405832159        3.4068429905       -0.1132254031
 H          0.2839564151       -3.6397617254       -0.0005076202
 H          1.9453790174       -5.4898891472        0.0326048252
 H          5.1005395410       -3.9528106226        2.4524087549
 H          6.8865251138       -4.7685981323        3.9415978452
 H          9.2704589058       -6.0865946852        3.7795196031
 H          8.0921122180       -7.0829044396        4.6262459561
 H          9.0141036106       -7.7621906229        3.2802741448
 H          7.7653850429       -7.9925844531        1.2804298375
 H          6.7694382349       -8.9026482627       -1.1125705940
 H          5.7769932992       -9.2339032525       -4.4657444317
 H          4.6845031857      -10.2372698210       -3.5190902731
 H          6.3957899565      -10.1544420347       -3.0896412747
 H          3.7007642078       -7.6800276850       -3.8221097917
 H          3.1462982798       -5.7389495478       -2.4064073672
 H          5.6849530579       -1.5570458012       -0.6548269582
 H          6.0476226780       -3.2809848541       -0.8435329251
 H          6.0260964638       -2.5573011889        0.7573462439
 H          3.4579477787       -0.8107882759       -0.1684565992
 H         -2.4865062921       -2.7057249105        0.1263583162
 H         -4.9254335733       -3.1738229849        0.2575134608
 H         -6.1255261195       -2.6769492883       -2.1524860246
 H         -7.7965433200       -3.8943692887       -3.4966281111
 H        -11.3927379608       -4.2907704285       -2.5809586784
 H        -10.0673178243       -5.2911173586       -3.1893604863
 H        -10.4884392784       -3.7946344053       -4.0167761014
 H        -10.8767029996       -2.9667625461       -0.6849478494
 H        -11.0295063295       -1.6021024582        1.6956723342
 H        -11.8078481735       -0.6338506193        3.7131839062
 H        -10.9818965079        0.8675672878        4.1439627534
 H        -10.6152906619       -0.6158653289        5.0174968667
 H         -8.2775278509        0.4572518896        4.2323036412
 H         -6.4166368221       -0.0086189140        2.6851211640
 H         -6.3892395873        1.6312643279        0.9518362184
 H         -5.5504973676        2.2114244781       -0.4874198050
 H         -6.8835873986        1.0531845162       -0.6317588781
 H         -3.3116002112        1.4636042427       -0.0817353765
 H          2.8800713723        2.0243036774       -0.2743670945
 H          4.6372093569        3.5562762756       -0.8363751937
 H          4.5800764946        4.6627396085        0.5360418828
 H          4.3005064208        5.2776020755       -1.0857805936
