  63
        -99.76860794
 C         -2.0868174245        5.5470891776        0.0506822421
 C         -0.9341612768        4.8110454172        0.2717130746
 C         -0.9791335658        3.4289477512        0.2469469171
 C         -2.1827522714        2.7814648784        0.0004034043
 N         -2.1907364188        1.3613680119       -0.0156805014
 C         -2.1953060345        0.6748753646       -1.2179183522
 C         -2.5498280916        1.3066490960       -2.4102760204
 C         -2.6035863211        0.5956621029       -3.5930521153
 C         -2.3104174815       -0.7564091519       -3.6116390698
 C         -1.9241166808       -1.3840340171       -2.4395742837
 C         -1.8572603174       -0.6833679244       -1.2478271202
 C         -1.2833598407       -1.3160366412       -0.0013988143
 C         -1.3523732488       -2.8236402210        0.0080899671
 C         -2.4768275517       -3.6233252640        0.0124969944
 C         -2.3128435953       -5.0017264304        0.0252416289
 C         -1.0469342260       -5.5721731813        0.0329641318
 C          0.0873698363       -4.7786298839        0.0290099261
 C         -0.0735230185       -3.4015313025        0.0169323476
 C          0.9131394326       -2.3411147106        0.0106924944
 N          2.2106564395       -2.4258994981        0.0194639547
 C          2.8781874787       -1.2381535277        0.0077519914
 C          4.2668562841       -1.2433706717        0.0152525121
 C          4.9898447370       -0.0517367343       -0.0011330720
 C          6.4073962311       -0.0364624932        0.0077530770
 C          7.0944051906        1.1390784649       -0.0109301712
 C          6.4049272475        2.3690916690       -0.0411646200
 C          5.0434311668        2.3967628974       -0.0505568719
 C          4.2908759347        1.1961643004       -0.0297663113
 C          2.8960463045        1.2015181112       -0.0357854925
 C          2.1776612409        0.0163541241       -0.0144931998
 N          0.8107932048        0.0624727225       -0.0149305812
 C          0.2153978739       -1.0835567308       -0.0035602480
 C         -1.8559507434       -0.6734451318        1.2395815333
 C         -1.9321000184       -1.3593783380        2.4392886535
 C         -2.3412223261       -0.7193552172        3.5969665027
 C         -2.6612992117        0.6264015780        3.5549004993
 C         -2.5981448461        1.3219437438        2.3636941015
 C         -2.2001918638        0.6811221814        1.1896120260
 C         -3.3411770840        3.5175664639       -0.2132970146
 C         -3.2876493273        4.9005175003       -0.1901819941
 H         -2.0503854818        6.6262103203        0.0680357253
 H          0.0010932688        5.3167605817        0.4616317441
 H         -0.0958543419        2.8310418188        0.4151371176
 H         -2.7763579353        2.3616960141       -2.4099691158
 H         -2.8781470288        1.1040115257       -4.5054786072
 H         -2.3571321499       -1.3152531484       -4.5335524859
 H         -1.6547929651       -2.4304956609       -2.4547139394
 H         -3.4630264738       -3.1830066835        0.0072505114
 H         -3.1840610239       -5.6402848855        0.0291105187
 H         -0.9487779776       -6.6477472858        0.0424588445
 H          1.0777396133       -5.2060634016        0.0356654756
 H          4.7781662557       -2.1941275544        0.0324847514
 H          6.9293237475       -0.9821358876        0.0299983869
 H          8.1745416455        1.1419225392       -0.0026951149
 H          6.9710478001        3.2887783983       -0.0558258586
 H          4.5097816074        3.3359256874       -0.0730968138
 H          2.3564834758        2.1366493864       -0.0603771961
 H         -1.6548768459       -2.4033152296        2.4721080374
 H         -2.3932187265       -1.2659876666        4.5259106361
 H         -2.9676069432        1.1395874965        4.4544270529
 H         -2.8585644051        2.3693740872        2.3360863434
 H         -4.2754260936        3.0046969853       -0.3909029697
 H         -4.1871058065        5.4746764034       -0.3571972567
