63
 energy: -103.376598042041 gnorm: 0.000043707880 xtb: 6.7.1 (edcfbbe)
C            3.66316403005681        1.22467157228078       -3.38132002217855
C            2.31638098538460        1.34798086833038       -3.07128068298564
C            1.79065951489470        0.71578612187881       -1.96222342628180
C            2.60794965612816       -0.04654473899394       -1.12650785744299
C            3.96045077371488       -0.20597391176669       -1.47872703631935
C            4.48037317196412        0.43422877617973       -2.59374988408634
O            4.80637799765117       -1.00250241751797       -0.76410708483382
C            4.29802537024160       -1.67435312149711        0.30838479373353
C            5.16091060249395       -2.50569330415685        1.00705161955311
C            4.71391678207164       -3.18396952795924        2.12713126721343
C            3.40795918544396       -3.01184572918090        2.56333365480271
C            2.54165692817472       -2.18493678122690        1.87541022293587
C            2.96074749009686       -1.52246509586825        0.71950390598643
N            2.11950547207116       -0.67925201634584        0.00917547803732
C            0.77712840081858       -0.51736766258753        0.40461045369437
C           -0.04351657108428       -1.69218388876439        0.28363528241957
C           -1.42288721098407       -1.65867214881647        0.43610489116763
C           -2.46919569828494       -2.60478125072306        0.02888367218481
C           -2.15806266103328       -3.94322915728655       -0.19227187596259
C           -3.10892341554808       -4.85734333301775       -0.61145348965703
C           -4.41206577359823       -4.43876426881197       -0.82738017058976
C           -4.75421171528019       -3.11773280535072       -0.61715754270226
C           -3.82168950243090       -2.16887304683708       -0.18622743295674
C           -4.20889681877973       -0.77916961266629        0.00420314297933
C           -5.26615946614974       -0.01862956257749       -0.52444156276327
C           -5.27978132772297        1.37971605441158       -0.51573801451588
C           -4.19239051164713        2.15647027371450       -0.01209676056711
C           -3.79879796470952        3.50842340069768       -0.24620400360902
C           -2.50722814207552        3.95813649428852       -0.00558178888601
C           -1.48597215970779        3.12615818336538        0.51103986149717
C           -0.04268156954322        3.26291625871290        0.53797265491310
C            0.56101518530238        4.52098612809647        0.42023981474958
C            1.92563355430383        4.68806285569642        0.48629509874628
C            2.74503199729169        3.58720438992269        0.69906328302333
C            2.18688483673192        2.32882398380560        0.79336485744177
C            0.81280298089962        2.11412089612787        0.68543069297507
C            0.24931116771893        0.75943527875951        0.72431780702807
C           -1.10326462703856        0.73703359907230        1.00644579639993
C           -1.93265364306841        1.86563263271438        0.90499293840735
C           -3.23766963875100        1.40661595285199        0.65471740530031
C           -3.23233850096079       -0.01077176907428        0.65893437171736
C           -1.92419213527026       -0.42611907831204        0.86084380956725
H            4.07253965925691        1.72613571191905       -4.24360101765724
H            1.66659204122932        1.93791265202029       -3.69828748419807
H            0.73961509186450        0.80244623282153       -1.74011024342649
H            5.52444220121985        0.29400377679688       -2.82358202244277
H            6.17655945002631       -2.59823009645084        0.65723341789504
H            5.38844991518173       -3.82978093520608        2.66621175160143
H            3.06247211539601       -3.51657057166572        3.45181052181132
H            1.53439048473665       -2.03729787251289        2.23027859192740
H            0.45027627257118       -2.57565955518950       -0.09561207935440
H           -1.14473980794897       -4.27666955217828       -0.01994132652973
H           -2.83419103939493       -5.89014814155106       -0.76894349547385
H           -5.16254709764324       -5.14397938249340       -1.15502427287692
H           -5.77598602924423       -2.80260924649986       -0.77236606530590
H           -6.07829907220312       -0.51532784892391       -1.03925758596900
H           -6.10643996494314        1.88429417020974       -0.99821505958900
H           -4.49982582843272        4.18519779678009       -0.71694223012460
H           -2.26746660832486        4.96886263295331       -0.30956422554587
H           -0.07612680134373        5.38540754405141        0.30062633429521
H            2.35574588855441        5.67548755736304        0.39794694842512
H            3.81377868561867        3.71264908456437        0.79380889126437
H            2.83682732533877        1.48990687204242        0.99387130689875
