63
 energy: -103.451129108480 gnorm: 0.000047333341 xtb: 6.7.1 (edcfbbe)
C            3.58862841189906        0.87588363967189       -3.61505307023919
C            2.25058571376639        0.99793611085574       -3.30022206127400
C            1.75690520036693        0.46704704292987       -2.11794353201821
C            2.59980598371385       -0.18624779751346       -1.22853757901906
C            3.95307516494155       -0.32268805496063       -1.56592632659548
C            4.43938254648764        0.20571406663791       -2.74600173253087
O            4.85186640146096       -0.98117145769919       -0.75495162450540
C            4.36339586425858       -1.54285482876928        0.40517681226947
C            5.25951635697135       -2.23613282550461        1.19582867137095
C            4.84148399914337       -2.81046634443251        2.38920684232822
C            3.52637304428427       -2.67737449573998        2.78604495528264
C            2.62223200746834       -1.98351130537698        1.99537753899482
C            3.02175121773820       -1.41735726467680        0.79131576231323
N            2.14033702173790       -0.70818591081434       -0.02090313943089
C            0.77259843276808       -0.57356811420326        0.34185852580645
C           -0.03761927931568       -1.68622460819967        0.13999795444477
C           -1.44048945975894       -1.66314440042315        0.32998165972627
C           -2.48198019499901       -2.57005738523381       -0.14092188839289
C           -2.17377586915980       -3.88570022682963       -0.49600646092166
C           -3.13350023520118       -4.75266886909481       -0.97087112882074
C           -4.44599285107519       -4.31948525713836       -1.11524142678885
C           -4.78213847474802       -3.02526632690301       -0.78368245921698
C           -3.83687606937720       -2.12182475795092       -0.28982515226798
C           -4.21121195305684       -0.74742908050685        0.02520689528765
C           -5.31280507513672        0.04657999035357       -0.41819954735132
C           -5.32145687332374        1.42196812380663       -0.32963252506330
C           -4.22104995362578        2.15830962480044        0.20644695045798
C           -3.81887267564021        3.51598040597680        0.02031679715401
C           -2.52415241762215        3.93520827822458        0.23761102000806
C           -1.49063447350514        3.05187107047469        0.67536655182537
C           -0.03937477864449        3.19048093954341        0.66089278600483
C            0.54918550544121        4.45424740336327        0.56569056150720
C            1.91600391619317        4.62303203884071        0.57230821126933
C            2.74408247653668        3.51484220041224        0.69245247056302
C            2.19737250178372        2.25277426195961        0.77362017666133
C            0.81652568983704        2.03993885084386        0.73699543003506
C            0.25327099406135        0.69043726300068        0.76319986077357
C           -1.09404446260637        0.64910111307395        1.05651613947981
C           -1.93250747220798        1.79865033367097        1.02452418632994
C           -3.25293523526229        1.36465556608013        0.79945064255020
C           -3.25056028339940       -0.04014136516963        0.70820583293939
C           -1.90755651210110       -0.47978692846170        0.85913025289842
H            3.97920465564254        1.29025587059017       -4.53123355451073
H            1.57559411495845        1.50732553607046       -3.97095595278779
H            0.70809749509178        0.56228995933627       -1.88250622970085
H            5.48810360393497        0.08409132965390       -2.96828300533062
H            6.28298196851528       -2.31341244816212        0.86336533498142
H            5.54912237327382       -3.35018162033613        2.99878140431655
H            3.19006884148158       -3.10975701593871        3.71607977163827
H            1.59741093006271       -1.87518683737931        2.31534849716202
H            0.43949650194497       -2.56519648468248       -0.27124456923212
H           -1.15765470349125       -4.23139004241722       -0.37467513347567
H           -2.86666212079106       -5.76779174408202       -1.22615462968644
H           -5.20212770608559       -4.99714419340240       -1.48376471952792
H           -5.80637764093531       -2.69924833507767       -0.88808576264721
H           -6.13997609172351       -0.43287183039851       -0.92229429509241
H           -6.15102054450161        1.96325548222981       -0.76387316202313
H           -4.52950979283285        4.22111033863763       -0.38900885518642
H           -2.27412149471975        4.95599810640357       -0.01453343313555
H           -0.09245381402945        5.32100020743137        0.50952726327645
H            2.34120737381806        5.61337494953365        0.50213928448253
H            3.81653884929388        3.63846411233930        0.72783120478146
H            2.85663055845574        1.40892236573769        0.89969980767882
