  63
       -103.41292118
 C          3.6050922328        0.9640746893       -3.5572874253
 C          2.2668696458        1.0851441238       -3.2446956793
 C          1.7648188708        0.5230140618       -2.0807871421
 C          2.6006273671       -0.1600534288       -1.2078943028
 C          3.9540802867       -0.2977836469       -1.5440412851
 C          4.4476728181        0.2622366423       -2.7063038326
 O          4.8424406642       -0.9886802183       -0.7540769916
 C          4.3526848861       -1.5655727690        0.3938280263
 C          5.2443988413       -2.2760142065        1.1739710520
 C          4.8238977834       -2.8652904468        2.3588291536
 C          3.5104277401       -2.7302259422        2.7590423930
 C          2.6096160252       -2.0204500205        1.9789294485
 C          3.0117518122       -1.4404966547        0.7829277293
 N          2.1342805673       -0.7141124095       -0.0172905381
 C          0.7707507211       -0.5774721964        0.3488632676
 C         -0.0399854033       -1.6923159833        0.1611259831
 C         -1.4419712057       -1.6660032560        0.3520052624
 C         -2.4829866171       -2.5757353977       -0.1123432290
 C         -2.1757043523       -3.8957675044       -0.4497320380
 C         -3.1343449956       -4.7659061117       -0.9198262411
 C         -4.4440077906       -4.3308671672       -1.0796121618
 C         -4.7790737443       -3.0324904356       -0.7651607096
 C         -3.8354763259       -2.1264863086       -0.2739962453
 C         -4.2091772899       -0.7494105239        0.0270923148
 C         -5.3078747950        0.0411467965       -0.4275906997
 C         -5.3166952609        1.4168842066       -0.3489770950
 C         -4.2182297548        2.1563920359        0.1852242522
 C         -3.8152079975        3.5119293917       -0.0111576691
 C         -2.5204362250        3.9313251608        0.2032593566
 C         -1.4885994308        3.0508921114        0.6493236213
 C         -0.0378122624        3.1873742554        0.6312371970
 C          0.5519773812        4.4485481819        0.5171607815
 C          1.9188160158        4.6147738910        0.5169426828
 C          2.7452151278        3.5073347596        0.6513865164
 C          2.1976813235        2.2474093058        0.7513451905
 C          0.8164972663        2.0372649253        0.7191939467
 C          0.2513226907        0.6896511226        0.7605620465
 C         -1.0952582004        0.6523447731        1.0555935181
 C         -1.9323407141        1.8022458610        1.0111978775
 C         -3.2524974640        1.3675107000        0.7876066785
 C         -3.2510289861       -0.0378257325        0.7087083659
 C         -1.9093681229       -0.4774325726        0.8685902609
 H          4.0013263160        1.4031919309       -4.4591995360
 H          1.5981922616        1.6183017461       -3.9027921563
 H          0.7153064944        0.6170858809       -1.8494222127
 H          5.4955107718        0.1396816779       -2.9293940912
 H          6.2668435690       -2.3544785075        0.8406185199
 H          5.5279223927       -3.4184144408        2.9599228315
 H          3.1724298945       -3.1743014744        3.6824555832
 H          1.5860870255       -1.9105946184        2.3016544909
 H          0.4358514113       -2.5753288201       -0.2425158208
 H         -1.1611459790       -4.2419564252       -0.3176236337
 H         -2.8690345082       -5.7845809551       -1.1608905708
 H         -5.1988475339       -5.0109130273       -1.4453562584
 H         -5.8015538502       -2.7047228978       -0.8809306419
 H         -6.1331025687       -0.4420062391       -0.9314581857
 H         -6.1445819104        1.9552384652       -0.7897710110
 H         -4.5251856765        4.2142911357       -0.4260980525
 H         -2.2691425948        4.9500813543       -0.0562985305
 H         -0.0886747705        5.3154272527        0.4511039131
 H          2.3450105965        5.6033424455        0.4316826675
 H          3.8175066896        3.6311068345        0.6837171517
 H          2.8558593459        1.4057411490        0.8923893102
