63
 energy: -103.376630123987 gnorm: 0.000126441208 xtb: 6.7.1 (edcfbbe)
C            3.74212607878969        1.42466009436440       -3.20847798194939
C            2.39191251647523        1.54492101675586       -2.91244894479314
C            1.83478398897392        0.82792420770933       -1.87249402115651
C            2.62327021163973       -0.01954331576727       -1.09278182187612
C            3.97753165922535       -0.17751197814199       -1.43864390624710
C            4.52979332491798        0.54973273578879       -2.48247977708285
O            4.79350945950110       -1.05625710201690       -0.78864786025234
C            4.25262710809344       -1.81120766176692        0.21010724018406
C            5.08285772002027       -2.73029162091220        0.83449870577410
C            4.60425666708135       -3.49544729712916        1.88325448720381
C            3.30084504895349       -3.32139134866242        2.32608976185886
C            2.46685525061941       -2.40793754761863        1.71157081670810
C            2.91567375180855       -1.65814778314942        0.62194295074803
N            2.10494097100662       -0.73348997235638       -0.01991820582047
C            0.76397799184317       -0.56804902121630        0.37649585289921
C           -0.08272294056563       -1.71263489195981        0.16963171578650
C           -1.46149182946541       -1.65929270349394        0.31879400617239
C           -2.52555062390228       -2.55401926617237       -0.15370142610721
C           -2.24197767129470       -3.88175346440773       -0.45998963594312
C           -3.21045062085802       -4.74640091447100       -0.93947404120898
C           -4.50338609281729       -4.28675194538805       -1.13201260913637
C           -4.81798136586078       -2.97462279142636       -0.83905344383773
C           -3.86722786838338       -2.07585307906108       -0.34517203818794
C           -4.22470406858148       -0.69273863100890       -0.06802060654284
C           -5.26124061132763        0.12372131841458       -0.55252847267015
C           -5.24284925460292        1.51864866053998       -0.45600385518558
C           -4.14171959318360        2.23672471625222        0.10193762377005
C           -3.71558855708313        3.59115769707336       -0.04436244052395
C           -2.41612045600418        3.99475427001024        0.23237038221321
C           -1.41853190100708        3.10919951919153        0.70421985912288
C            0.02711309409166        3.21163287437168        0.75188476586550
C            0.65974270887239        4.46047944937550        0.71753786579768
C            2.02690792790689        4.59200313209645        0.80775798489276
C            2.81914321936094        3.46186886032453        0.96241456373769
C            2.23225159751393        2.21324096594352        0.97321087164494
C            0.85533952674862        2.03697618244555        0.83568575684239
C            0.26180166587351        0.69562602081048        0.77974921102243
C           -1.09340181062330        0.68557040116947        1.04944589221928
C           -1.89669565315534        1.83707690643862        1.01531221181844
C           -3.20949395439615        1.42479715251329        0.72665335812400
C           -3.23551837697677        0.01031812445249        0.63908143174543
C           -1.93860054129656       -0.44658717244497        0.82177739584296
H            4.17696694491186        1.99449316198686       -4.01400815294126
H            1.76419194480011        2.19970229089568       -3.49605561316985
H            0.78137431626674        0.91437354854898       -1.66186916345049
H            5.57485339523986        0.40865112474390       -2.70739692627539
H            6.09871230544795       -2.82144402996010        0.48487852593455
H            5.25286562129788       -4.21040181954720        2.36367063538815
H            2.93188714356634       -3.89381802604147        3.16258443292384
H            1.46170466999493       -2.26182171954644        2.07289333028359
H            0.39296155928701       -2.57836881647969       -0.26907485119238
H           -1.23670575528445       -4.24738178293380       -0.30685226535683
H           -2.95713740500081       -5.77268684358285       -1.16214069317916
H           -5.26737020357529       -4.95314098664450       -1.50643206115539
H           -5.83202990164098       -2.62809787610826       -0.97700593603324
H           -6.08110381478798       -0.32061782720288       -1.10181178728703
H           -6.05436651301553        2.07145198868574       -0.91056219909426
H           -4.39696488756749        4.31203234584122       -0.47695194107017
H           -2.15075219879106        5.01641028487960       -0.00698879433945
H            0.04341572780207        5.34494972498137        0.64458898439286
H            2.47997277143362        5.57285219892793        0.78449964006988
H            3.88906805850903        3.55684805128652        1.07722041594589
H            2.86075941617983        1.34890211727398        1.12915202055505
