112
 energy: -152.014446505484 gnorm: 0.000094449596 xtb: 6.7.1 (edcfbbe)
C            4.99752968811384        6.03122747615142       -0.00601687628150
C            3.63341897362520        5.72135411760373       -0.62849303081333
C            3.70189828778616        6.06591548928070       -2.12325276106142
C            2.58409276513927        6.60462233785618        0.06192424220692
C            3.23652605234098        4.26167858765222       -0.47167292166907
C            2.00362354259286        3.83692268501887       -0.98465414084059
C            1.55921051497546        2.53508725738462       -0.88150674413182
C            2.37004525685609        1.61718954655203       -0.23123695933996
C            3.63031680313757        2.01292693500343        0.26834061948943
C            4.05402288522056        3.32748306347480        0.15013244135962
C            4.23349696937338        0.83044248986670        0.82491368981951
C            5.44592646141740        0.58973268174215        1.45238078109245
C            5.74603939522758       -0.68884088715206        1.90297395896480
C            7.06196976354499       -1.02855436120159        2.58514465022176
C            7.99966740666000        0.17727051702975        2.69071869479419
C            6.77689959523417       -1.53681585560308        4.00575522319533
C            7.77856110026262       -2.11920368271873        1.77590902681737
C            4.79328301036248       -1.70189150145524        1.72863265395385
C            3.57876738545011       -1.48888659741861        1.11062522595018
C            3.30413235681953       -0.21547261306440        0.63396872167520
N            2.18326409590465        0.27193327046445       -0.00116968155959
C            1.06310581013578       -0.48456110444550       -0.37986986731110
C            1.24793149299553       -1.64790955850882       -1.10283309882479
C            0.14096793890517       -2.42960246156333       -1.49705314078920
C            0.24583265473693       -3.62438981123087       -2.28487309266264
O           -0.75731594225007       -4.11177218419218       -2.88290756347043
C            1.54271560727623       -4.30948998352103       -2.40730707181534
C            2.43500044393555       -4.40758800761401       -1.33640042741117
C            3.63688285035179       -5.06842306251446       -1.49017972861439
C            3.96266645463272       -5.66137609744406       -2.70073074380194
C            3.06060346617580       -5.60943938107387       -3.75309031783015
C            1.85695170603289       -4.95134952702215       -3.60950669640977
C           -1.15169036799818       -1.95178251890629       -1.17468430752155
C           -1.31832365364043       -0.79510155715798       -0.44300521335913
N           -2.61236085696100       -0.37951485971822       -0.09492402228377
C           -3.58275085878259       -1.17815244436256        0.47055719724658
C           -3.52914295582991       -2.50679450222002        0.86841425158304
C           -4.66030182757539       -3.05823856136322        1.43373354725090
C           -5.84498468016814       -2.33505628551311        1.62912890894505
C           -7.04103107893732       -3.03885611477563        2.25036875341408
C           -7.44259394967310       -4.22348084958812        1.35979621231814
C           -6.65753177690699       -3.54497139333840        3.64846621104307
C           -8.25688983969630       -2.11928933525263        2.39461290751984
C           -5.87722294005040       -0.99872901847590        1.25224528821106
C           -4.75549595907017       -0.41976760729208        0.68016229302490
C           -4.46879962885711        0.90857623771963        0.20503678763086
C           -5.21949857067771        2.07115327906180        0.13248863098878
C           -4.66053124504320        3.21976274519418       -0.41260329131284
C           -5.42372794483771        4.53073159065283       -0.51853895375752
C           -4.66443805295151        5.61856175378925        0.25482842549596
C           -6.83836465135285        4.43749505253945        0.05968549549438
C           -5.53824469169236        4.92720085677583       -1.99759119054469
C           -3.34623418593509        3.16079072198053       -0.89476548275175
C           -2.57847055220239        2.01621733820305       -0.83588225564809
C           -3.13637170544923        0.88264972856698       -0.26339143009626
C           -0.21476923782336       -0.04365837624712       -0.02322137457501
H            5.78685547819952        5.45757604552679       -0.48620462339599
H            5.22393053730906        7.08732435738777       -0.13797090650996
H            4.99834882258614        5.81888826396024        1.06066744457371
H            2.73883146308566        5.93059786664294       -2.60730955762829
H            4.42687887598684        5.42688086303317       -2.62309400091564
H            4.00616420536312        7.10212793991748       -2.25467900470381
H            1.60146050638961        6.47804238378877       -0.38357999012846
H            2.86317682107752        7.65268796237956       -0.02320178721112
H            2.51490217437287        6.35030675768336        1.11761202304680
H            1.36734448285407        4.54779015671630       -1.48898664617156
H            0.61481347791089        2.23871180141240       -1.30989588735731
H            5.01966551045506        3.59711276577967        0.54376570406007
H            6.13458147749217        1.40816077647598        1.57937504070339
H            8.92525924487549       -0.12565803081155        3.17601695344299
H            8.24918682356289        0.56628808441498        1.70622192975007
H            7.55345636592052        0.96998305207885        3.28682957237366
H            6.16866141701420       -2.43675749373942        3.99183250062697
H            6.24809630041997       -0.77702537605227        4.57762213144550
H            7.71054173005963       -1.76527183199758        4.51535249592703
H            7.18756892419391       -3.02908375629074        1.72350814485052
H            8.73378243108086       -2.36053932109275        2.23735159007830
H            7.96263767171683       -1.77379842378057        0.76069222988875
H            5.00520472695856       -2.69525056925086        2.09279220392653
H            2.86157933832613       -2.28820717352765        1.01190645428073
H            2.24378786457644       -1.91670563657515       -1.41842462566918
H            2.16574288709822       -3.99893699556282       -0.37412705874557
H            4.32028804829709       -5.13280425685517       -0.65511297975181
H            4.90487708786940       -6.17642757041317       -2.81599968595418
H            3.29887259937281       -6.08761893058242       -4.69239324366598
H            1.14831590973901       -4.90852515629456       -4.42247957527693
H           -2.00525665661886       -2.50761640295534       -1.52941796819922
H           -2.63206028680290       -3.09328123553297        0.74459537532224
H           -4.61715000500585       -4.09312736339986        1.73563834328410
H           -6.63717033163924       -4.94698522367333        1.27273299211300
H           -7.69506631006066       -3.87367352449949        0.36100309913547
H           -8.31029124381368       -4.72880314703815        1.77859331485447
H           -6.34741706051134       -2.71298657514281        4.27750445455009
H           -5.84097381576290       -4.25982170979363        3.60254078973793
H           -7.51028637808451       -4.03249393682262        4.11611640349741
H           -8.03600733650735       -1.27609029552198        3.04514940508426
H           -9.08087756130188       -2.67598695505313        2.83635877718139
H           -8.58438948809709       -1.74871168231094        1.42601940683605
H           -6.75683418040017       -0.39364368495373        1.39492971595978
H           -6.23201825247483        2.05701503798026        0.49945811098183
H           -3.67029714865109        5.77726614229854       -0.15330443490967
H           -5.20669796287273        6.56036862051960        0.20454605650049
H           -4.56218628986831        5.33433829866113        1.30014415584230
H           -7.43419455054952        3.70425462158427       -0.47880649507094
H           -7.33164976547185        5.40291951123601       -0.03348958436799
H           -6.81358117974980        4.17419514531655        1.11465865411980
H           -6.05198389226936        4.14785933865132       -2.55653296854172
H           -6.10368348615359        5.85161154710908       -2.09425997848913
H           -4.56036825364774        5.07866452428593       -2.44583863463976
H           -2.90569442022910        4.04011442055014       -1.33888992509040
H           -1.57853128486537        2.00324453641942       -1.23932972141518
H           -0.34262813404113        0.83094421643791        0.59356520004000
