  112
       -152.00915528
 C          4.8075637719        5.1018633132       -3.4980720868
 C          3.4126165229        4.5282623846       -3.7622009857
 C          3.3690502480        4.0271354130       -5.2129853588
 C          2.3899734281        5.6575147796       -3.5706146881
 C          3.0678332129        3.3757776943       -2.8317962635
 C          1.8063340115        2.7746455564       -2.9375917704
 C          1.4068498359        1.7235299020       -2.1376994451
 C          2.3015559120        1.2529547840       -1.1873965092
 C          3.5886483771        1.8245960706       -1.0767006716
 C          3.9623079907        2.8818504113       -1.8913051399
 C          4.2735372311        1.0839740481       -0.0492858600
 C          5.5386306028        1.1816714358        0.5087618336
 C          5.9139308750        0.3083869383        1.5214191829
 C          7.2873733055        0.3511964994        2.1725990279
 C          7.1248729460        0.6152507306        3.6766267929
 C          7.9865576095       -0.9981995524        1.9536269713
 C          8.1814487899        1.4501182871        1.5919165125
 C          4.9857375849       -0.6435573759        1.9647716496
 C          3.7191446106       -0.7588173385        1.4310807189
 C          3.3651242480        0.1011926297        0.4018260868
 N          2.1778897899        0.2189937840       -0.2855610314
 C          1.0578980476       -0.6114783925       -0.1319016443
 C          1.2226498818       -1.9822700370       -0.2076799149
 C          0.1114310534       -2.8459130890       -0.0848404830
 C          0.1959725950       -4.2792619821       -0.1911628492
 O         -0.8171760595       -4.9869865617       -0.4241037925
 C          1.5087980524       -4.9263162101       -0.0319082993
 C          2.4543405360       -4.4717774520        0.8914337084
 C          3.6671987051       -5.1162788769        1.0222922293
 C          3.9538859489       -6.2345020053        0.2526990926
 C          3.0013298744       -6.7199477679       -0.6313081952
 C          1.7852971833       -6.0837719213       -0.7673335646
 C         -1.1683590030       -2.2576493537        0.0455367040
 C         -1.3177365145       -0.8873100019        0.0983083344
 N         -2.5977607855       -0.3440728002        0.2716113063
 C         -2.9567033311        0.5915683103        1.2163450090
 C         -2.1994186427        1.2029523327        2.2057586841
 C         -2.8293098537        2.1048720262        3.0389665253
 C         -4.1908042658        2.4181522421        2.9318811386
 C         -4.7897520462        3.4302841361        3.8956863371
 C         -4.6306307992        2.9105255202        5.3317845889
 C         -4.0529029680        4.7687720248        3.7419987457
 C         -6.2793001473        3.6771340198        3.6412194978
 C         -4.9444836834        1.7793896002        1.9550604409
 C         -4.3377460339        0.8684701677        1.1056570664
 C         -4.8310005421        0.0423119132        0.0340280474
 C         -6.0820775613       -0.1155798761       -0.5403362935
 C         -6.2465000625       -1.0017788500       -1.5976165557
 C         -7.5907646996       -1.2320441078       -2.2695466374
 C         -8.7165839911       -0.4116591590       -1.6336586901
 C         -7.9617497034       -2.7176526989       -2.1553790107
 C         -7.4865714643       -0.8336547704       -3.7489218141
 C         -5.1262727337       -1.7015186612       -2.0665997889
 C         -3.8690684268       -1.5620463244       -1.5153669622
 C         -3.7234485904       -0.6930769356       -0.4427303694
 C         -0.2070052447       -0.0379821769        0.0276049865
 H          5.5781018683        4.3534705334       -3.6677593948
 H          4.9921012868        5.9317043421       -4.1773648422
 H          4.8902087641        5.4767653467       -2.4804441099
 H          3.6295542986        4.8335994836       -5.8952909761
 H          2.3801856574        3.6631431190       -5.4772849654
 H          4.0794154465        3.2145170390       -5.3509172872
 H          1.3845446662        5.3311954562       -3.8207717098
 H          2.6419591965        6.5006094979       -4.2106557026
 H          2.3930013397        5.9956461795       -2.5365314677
 H          1.1087088048        3.1366053212       -3.6769999038
 H          0.4330912418        1.2748286641       -2.2612044573
 H          4.9498481709        3.2972283140       -1.7800630977
 H          6.2086828709        1.9419602814        0.1437490072
 H          8.1010698396        0.6787160956        4.1525751757
 H          6.5998110099        1.5543986603        3.8387273500
 H          6.5622584952       -0.1772161745        4.1618186270
 H          8.0890399286       -1.1997588636        0.8892623807
 H          7.4257643553       -1.8138111720        2.4013914696
 H          8.9788415080       -0.9821621541        2.3995439961
 H          8.3523898683        1.2953252058        0.5290788278
 H          9.1474217643        1.4326082250        2.0925810776
 H          7.7430272777        2.4336336700        1.7449505274
 H          5.2595739786       -1.3182769618        2.7609741979
 H          3.0240221251       -1.4903709601        1.8113597280
 H          2.1988212969       -2.3798262971       -0.4373530829
 H          2.2161386825       -3.6368912781        1.5338250683
 H          4.3905765264       -4.7531725386        1.7389088786
 H          4.9057128984       -6.7341397357        0.3563770489
 H          3.2104814978       -7.6030114693       -1.2181465370
 H          1.0366177893       -6.4567556159       -1.4494570561
 H         -2.0219368000       -2.9094367530        0.1444195107
 H         -1.1531364855        0.9722861135        2.3345472508
 H         -2.2366121708        2.5784265838        3.8063615912
 H         -3.5844415272        2.7812452775        5.5942177120
 H         -5.1303837933        1.9502947095        5.4412085250
 H         -5.0736867713        3.6127462438        6.0347319587
 H         -4.1425207823        5.1318884411        2.7202036013
 H         -2.9968710048        4.6716824733        3.9773315634
 H         -4.4830745954        5.5109021600        4.4111115915
 H         -6.4464269080        4.0624455013        2.6379674968
 H         -6.6497782376        4.4150618985        4.3498801567
 H         -6.8564426658        2.7653128835        3.7758294822
 H         -5.9984018757        1.9706523979        1.8421743755
 H         -6.9067650144        0.4589604974       -0.1529919962
 H         -8.5228643872        0.6550442095       -1.7209311615
 H         -9.6526577424       -0.6244811056       -2.1459602823
 H         -8.8430820859       -0.6684383008       -0.5844308941
 H         -7.2309660779       -3.3501872629       -2.6507552314
 H         -8.9322719634       -2.8964587086       -2.6133720171
 H         -8.0136753968       -3.0125081630       -1.1094273773
 H         -6.7452001675       -1.4324993601       -4.2701676817
 H         -8.4459625976       -0.9744028278       -4.2421636785
 H         -7.2028864126        0.2131661853       -3.8373970422
 H         -5.2374658124       -2.3825104993       -2.8958606663
 H         -3.0296419225       -2.1129985121       -1.9098615268
 H         -0.3240469754        1.0320498728        0.0717059080
