112
 energy: -152.094773799581 gnorm: 0.000050503271 xtb: 6.7.1 (edcfbbe)
C            4.86675205862699        6.12384244341261        0.28505479301087
C            3.51074617963842        5.83016337534077       -0.36245051937248
C            3.56766951974661        6.30255410514019       -1.82209620210776
C            2.43864437371327        6.62194628354573        0.39968320299599
C            3.15512831565206        4.35107021421098       -0.32833698086281
C            1.93578140628264        3.93634870306385       -0.87978800293809
C            1.52492073416373        2.61935435264030       -0.88352241515420
C            2.35449589230379        1.67340506764051       -0.30391760321131
C            3.60277103154006        2.05954754118751        0.22512867967086
C            3.99357024000363        3.39213192905028        0.21533472935305
C            4.24272143726386        0.85616017740450        0.68018109299825
C            5.46386992887668        0.61190041782803        1.29448665214507
C            5.81190688909618       -0.68239312636416        1.64323857866747
C            7.13525975876418       -1.02634927797986        2.31102907353220
C            8.02380013027617        0.20246541338629        2.52263843126362
C            6.85839364298718       -1.65586203955129        3.68363848076688
C            7.90186783641838       -2.02059437283260        1.42738994042249
C            4.90003872766775       -1.71230892427278        1.37809648331823
C            3.67958439126096       -1.49723158755600        0.77106895026768
C            3.35390947595711       -0.20220986739242        0.40001193066689
N            2.20861319154651        0.30200749012073       -0.19207386703501
C            1.09759767383020       -0.44411441767133       -0.59240663868323
C            1.27434265478537       -1.62074400732799       -1.31490832323797
C            0.16793758751540       -2.37032937057696       -1.69876178175978
C            0.33112170338742       -3.62073578896742       -2.49009508714729
O           -0.45126859760439       -3.93886284293490       -3.36019514252020
C            1.51188773313315       -4.45191794896277       -2.14158647647740
C            1.94744646264087       -4.57173156609386       -0.82363235575893
C            3.04157100001927       -5.36187315674705       -0.52479441211245
C            3.71215089015948       -6.03213153424201       -1.53561410527729
C            3.27281612288132       -5.93131277715822       -2.84597775553282
C            2.17058928182572       -5.15389295440142       -3.14765625399148
C           -1.11435712944264       -1.93435784186493       -1.38967634838268
C           -1.29450589840585       -0.77191309181588       -0.64583816688208
N           -2.58043562223277       -0.36779256898746       -0.28302436769438
C           -3.55136597439881       -1.18186743533181        0.27476112298068
C           -3.50064889656911       -2.51768278192634        0.64028795021631
C           -4.62450526552151       -3.07606867842489        1.21443245608253
C           -5.80048753775099       -2.35154947141658        1.44957555299801
C           -6.98849841695714       -3.06439191069051        2.07891183504356
C           -7.41459889229912       -4.22768806817097        1.17224399629328
C           -6.58191632898489       -3.60138544899325        3.45855476370899
C           -8.19624425103403       -2.14188832384567        2.26563449722503
C           -5.82903579549024       -1.00997856501769        1.10708702348145
C           -4.71214291262880       -0.42276356002205        0.52733692265923
C           -4.42797597140654        0.91671475294885        0.09100895890047
C           -5.18138174436439        2.08295575493376        0.06755123340972
C           -4.63390917282478        3.24580494255484       -0.44869673334640
C           -5.39596615790291        4.56206434976609       -0.49723365729558
C           -4.62209046773546        5.62065877859235        0.30133543679596
C           -6.80090809694969        4.45046554781939        0.10106789729059
C           -5.53529602551727        5.01131025625587       -1.95865585594538
C           -3.32940682766254        3.20100610150216       -0.95755333751728
C           -2.56072575541317        2.05530886232902       -0.94765983230540
C           -3.10559281476663        0.90657897611518       -0.39786402210504
C           -0.18591761121160       -0.03152973227426       -0.24422743773053
H            5.67038450667608        5.61352134665985       -0.24079941911316
H            5.06460573197007        7.19312330369790        0.24283672014227
H            4.87457565085662        5.82196173741139        1.32988306792030
H            2.60767477099847        6.18277441788874       -2.31635218780295
H            4.30866647197551        5.72785928428501       -2.37400608141467
H            3.84356300081521        7.35418110324862       -1.86545744685899
H            1.45882328140845        6.50312156113981       -0.05422014165083
H            2.68581989945560        7.68155875876571        0.40247059172197
H            2.38004747321905        6.27812510266513        1.43038840541963
H            1.28153433858890        4.66765192605515       -1.32924384047803
H            0.59021959679274        2.34056885890462       -1.34420830589326
H            4.95317335196293        3.65023334811621        0.63101350378997
H            6.11707906791711        1.44561877879387        1.49062145347480
H            8.95698110008727       -0.10145887259110        2.99284334367679
H            8.26478661119912        0.67834166093258        1.57487638205466
H            7.54088704561898        0.92706900730628        3.17413397145506
H            6.28523536909721       -2.57414788238779        3.59108027207849
H            6.29490667081938       -0.96436774745982        4.30672527805449
H            7.79525342214525       -1.88859146362305        4.18566663785424
H            7.34615974306312       -2.94455381860054        1.29388772204345
H            8.86099071165843       -2.26293043803027        1.88048695507678
H            8.08304213622312       -1.58772310053239        0.44568725470860
H            5.14846203145633       -2.72461434283171        1.65844990869496
H            3.00406690252623       -2.32116659729085        0.60293989217940
H            2.26744374432017       -1.92656017948330       -1.60570179585396
H            1.40884133672941       -4.06708069423212       -0.03401199641759
H            3.37328231671008       -5.45624462359944        0.49886301189590
H            4.57261941134898       -6.64070933004798       -1.29982409767490
H            3.78860528793187       -6.46335493008822       -3.63143745257873
H            1.81032576516477       -5.06840270537031       -4.16201826149470
H           -1.96342746401341       -2.50342796344815       -1.73499970933810
H           -2.61036726159733       -3.11060730874805        0.49338899523207
H           -4.58046889719086       -4.11808760822363        1.49222353469833
H           -6.61440800227085       -4.95274667910386        1.05338210830276
H           -7.68526849565382       -3.85515211834589        0.18643929747104
H           -8.27622254316986       -4.73858785979683        1.59718578744127
H           -6.25509877413056       -2.78394041267316        4.09813085514848
H           -5.76967023967673       -4.31877345102913        3.38200102521346
H           -7.42766561791864       -4.09468468967825        3.93322471976879
H           -7.95788931621310       -1.31443134980325        2.92997241727007
H           -9.01584067066594       -2.70325610869795        2.71000514644069
H           -8.53801481457662       -1.74760171091586        1.31144697568534
H           -6.69916345479125       -0.39970970912093        1.28232745112535
H           -6.18757423992941        2.05354056072857        0.45087169377802
H           -3.63371832473040        5.79005170838129       -0.11661322813535
H           -5.16140764973313        6.56565722687669        0.29275970534498
H           -4.50419600558670        5.29953440375931        1.33429372450072
H           -7.40618200857914        3.73615049617049       -0.45219512870458
H           -7.29473493244120        5.41890994107636        0.04986025076795
H           -6.75838487935453        4.15013253937767        1.14551017984799
H           -6.06068118668133        4.25318173563581       -2.53578705839458
H           -6.09953637568479        5.94008758292363       -2.01347331477587
H           -4.56471829445202        5.17606095014967       -2.41809889427884
H           -2.89602894790155        4.09286795085688       -1.38389238530899
H           -1.57044154842207        2.05875350027607       -1.37554532419706
H           -0.32017967492639        0.84930030339889        0.36488462090541
