60
 energy: -91.728732334346 gnorm: 0.000066070603 xtb: 6.7.1 (edcfbbe)
C           -2.27008912965573       -3.41718867861431        1.55662308688260
C           -0.92944373184277       -3.19134421952809        1.37098041806092
C           -0.44963613482145       -1.98469294384231        0.78319101009596
C            0.93723686084443       -1.73258332174353        0.59992169742335
C            1.92209844073882       -2.76923141727077        0.65523300567051
C            3.22980577081647       -2.51665271022745        0.42640362923082
C            3.72576754425425       -1.19861566883416        0.13262985294273
C            5.04256679884486       -0.95123981546974       -0.27610379673985
C            5.99117182179357       -2.00117860472347       -0.47012088055350
C            7.23903425233752       -1.76371009929816       -0.96488903395838
C            7.62315020619141       -0.45988119795292       -1.30590592954785
C            6.74491943263572        0.58643049487968       -1.09852394066035
C            5.47273571895343        0.39394983464251       -0.56730641364561
C            4.58345177854236        1.50089964102188       -0.27601201418588
C            5.02155923170356        2.83045921738275       -0.34077916809284
C            4.18681474272821        3.88912658197611       -0.03846907681817
C            2.88572511380238        3.64299629912601        0.35979855214363
C            2.43404765120454        2.33710783463049        0.44547898688028
C            3.25001226032311        1.25258038890695        0.12097613392447
C            2.76693868401715       -0.12097114665620        0.21910283548590
C            1.43946108156505       -0.41274484824675        0.38892834911085
C           -1.43440396221539       -1.04732066528935        0.38075740186246
C           -2.77677730539581       -1.28477529139403        0.57036126068624
N           -3.71793287736247       -0.31964836030337        0.17554622312525
C           -4.83325755015259       -0.54870961412096       -0.60143452240073
C           -5.26579313056919       -1.72480995997930       -1.20053272307570
C           -6.42327651450201       -1.67650025026623       -1.95481906586356
C           -7.13163340915900       -0.48874341439138       -2.12353743941891
C           -6.69160310423860        0.69107565700236       -1.55100879918142
C           -5.53353900634913        0.66734863176654       -0.78751780026534
C           -4.79141913208186        1.67592496670180       -0.07923625714740
C           -4.97519663935327        3.03694425669875        0.11870090419118
C           -4.05784690879911        3.72352593039788        0.89319100473152
C           -2.97937214961745        3.06549831074967        1.48064256223875
C           -2.77535152012150        1.71072122559466        1.29735857106411
C           -3.67746551860616        1.02086882345306        0.49780274552799
C           -3.21850034071418       -2.47430415569223        1.17122908933088
H           -2.59942159258638       -4.33509557662897        2.02216690841562
H           -0.22504914745567       -3.93061141545265        1.71625509329114
H            1.61291501436538       -3.78535676902041        0.84437145218744
H            3.92493646075715       -3.33991863102395        0.46250756499913
H            5.71302996264378       -3.01538196951252       -0.23461702999937
H            7.93269204862200       -2.58022167449959       -1.10670615132257
H            8.60126398660928       -0.27398809663229       -1.72328309483126
H            7.07065574417148        1.57771835993387       -1.37221336840121
H            6.03965246107403        3.05106618185018       -0.61832908896028
H            4.55766110163395        4.90192763624898       -0.10212050110857
H            2.22529046165370        4.45937156960531        0.61314100257990
H            1.42553497529626        2.17272338312554        0.79041010072319
H            0.72786949849806        0.39468687357399        0.40911331210528
H           -1.14270286521627       -0.14560235015130       -0.13395599773515
H           -4.71127299480766       -2.64428249401780       -1.09030065025509
H           -6.78350323778378       -2.57831128960659       -2.42766305547219
H           -8.03225699028644       -0.49127715699758       -2.71962751639708
H           -7.23402458128229        1.61316740763004       -1.69629269656938
H           -5.82010254783727        3.54574005633201       -0.32037881562784
H           -4.18130544835554        4.78408519320167        1.05584902780652
H           -2.29007923561888        3.62526637143512        2.09574693011887
H           -1.94958745202396        1.20269811547546        1.77209137779838
H           -4.26921621860455       -2.63198329493295        1.35496978511431
