60
 energy: -91.828132984936 gnorm: 0.000063378905 xtb: 6.7.1 (edcfbbe)
C           -2.19336725628289       -3.21653724976702        1.80926343750629
C           -0.86406680539550       -3.01326647533935        1.48654218633642
C           -0.48072606850873       -1.90644503893787        0.73051566297434
C            0.93258650249717       -1.67541922964660        0.39677318501049
C            1.77609529475746       -2.73609580052313        0.05491107573251
C            3.09954067070698       -2.50415239178249       -0.22367262242950
C            3.65656546483116       -1.21714769956357       -0.18346370405412
C            5.06826869687824       -0.98627140283367       -0.42755187927705
C            5.95068589108365       -2.04435049486595       -0.69110104780917
C            7.29408562002395       -1.83652197551616       -0.89364576245688
C            7.80618826401186       -0.54650102921801       -0.83194165353170
C            6.96263792288746        0.50870073078886       -0.57762776784003
C            5.58655469008305        0.32666649325792       -0.37778774334584
C            4.69843655279726        1.44900737233176       -0.12711172241540
C            5.16579520555636        2.77137006038377       -0.13606063388186
C            4.33105259067288        3.83911165835822        0.09349459626192
C            2.98149817944157        3.61635004790154        0.33586577041030
C            2.49634803495687        2.33027354952244        0.34560100836069
C            3.32732604443815        1.22270818778626        0.12293118851461
C            2.80542359325251       -0.13343696807839        0.12379808347638
C            1.46351072648671       -0.39879184844139        0.41916107367383
C           -1.46078432036488       -1.01800377492495        0.29896985774106
C           -2.79476754128272       -1.21633931075490        0.63282193370179
N           -3.76343202779815       -0.29195955803395        0.20829081950615
C           -4.93883569800554       -0.58798986437435       -0.45147035960324
C           -5.42537110063999       -1.81391100322609       -0.88394514221580
C           -6.63698310898538       -1.82988416530373       -1.54806141916623
C           -7.35052963963219       -0.65706255043160       -1.78877340440076
C           -6.86049051388043        0.56811243219246       -1.38218548052130
C           -5.64459368318470        0.61022999392956       -0.71143971322850
C           -4.84822425041794        1.67749410594509       -0.17288282382756
C           -5.01376742172499        3.05522510921666       -0.10291552424114
C           -4.04140361220545        3.80858008143737        0.52441709478107
C           -2.92265944225460        3.20347233236769        1.09447877857170
C           -2.73617992936107        1.83565319882362        1.03794980483402
C           -3.69636396114396        1.07527117592825        0.38475455281502
C           -3.16312486698957       -2.32131516376913        1.39435792857614
H           -2.47738853270778       -4.07335263518287        2.40264871121503
H           -0.11377470153996       -3.70401491154681        1.84067827305673
H            1.38135955144023       -3.73963157799096       -0.00433811109789
H            3.71341942874610       -3.35170145681089       -0.48115713179271
H            5.58449141074525       -3.05698161701390       -0.73531753087024
H            7.94791500342588       -2.67271666456182       -1.09464898595174
H            8.86186136075335       -0.37212285029117       -0.98117849228792
H            7.39156671344538        1.49624767488883       -0.52929756047767
H            6.20494157278545        2.97764323380367       -0.33364728159530
H            4.72295769215424        4.84578959459106        0.07957976447252
H            2.31449008999919        4.44804429182054        0.51053053707677
H            1.44218996936049        2.19250163890125        0.52235525709962
H            0.80866346591350        0.40813391149556        0.70303718493703
H           -1.19324457349818       -0.17818883520297       -0.32520621177936
H           -4.87249709857226       -2.72600756710764       -0.71640844268092
H           -7.03901839454447       -2.77233471774200       -1.89095036602569
H           -8.29599323312745       -0.71163397625907       -2.30849087700707
H           -7.40680683544906        1.47801931083845       -1.58221966754683
H           -5.88936515298203        3.52311047933656       -0.52805107346633
H           -4.15046568187891        4.88155499659187        0.58696539553275
H           -2.18796451785615        3.81755625566677        1.59521538026057
H           -1.87907597899931        1.37195982446857        1.50276830149587
H           -4.19797397659172       -2.46371087397764        1.66686125969413
