60
 energy: -91.728762424227 gnorm: 0.000037012461 xtb: 6.7.1 (edcfbbe)
C           -2.28577863983902       -3.32380634548639        1.74605110297177
C           -0.94241496899712       -3.11005734138354        1.56433619106012
C           -0.45399711149542       -1.93323403922597        0.92691019025046
C            0.93439593951870       -1.69712713187520        0.73263725908538
C            1.91063596094125       -2.74084886333322        0.80864002947643
C            3.21451904140121       -2.51039883907544        0.53814508607349
C            3.71161750952032       -1.20867690810070        0.17976261044417
C            5.00587956182479       -0.99011889912995       -0.30798191379684
C            5.91869018266913       -2.06063373212631       -0.55406628718867
C            7.13831436856970       -1.85029460810137       -1.12572860400653
C            7.52753282624074       -0.55571374503065       -1.49570375144743
C            6.68420340776073        0.50947367360639       -1.24295295462564
C            5.44308810584186        0.34456074597129       -0.63531566227484
C            4.59295767534231        1.46980475484046       -0.30041696443100
C            5.05581465111560        2.78982578576834       -0.38094807578095
C            4.25555295858024        3.86427949741370       -0.04226790133608
C            2.96743030062063        3.64398749869860        0.40995988783605
C            2.49363184731979        2.34718423656056        0.51512723380675
C            3.27390955474601        1.24810569532058        0.15513067129371
C            2.77140516100013       -0.11569037582626        0.28053111803564
C            1.44488692075965       -0.38680045947024        0.48560603418265
C           -1.43043751575173       -1.00979387790581        0.47641996764337
C           -2.77562851840683       -1.23733995103703        0.65845361909805
N           -3.71030202760688       -0.29081754035068        0.20632566980390
C           -4.80503224394395       -0.55325682924483       -0.58896172514481
C           -5.21942344462012       -1.75322409533676       -1.15244258815008
C           -6.35474271079443       -1.73714803018487       -1.94097048680366
C           -7.05922333040619       -0.55847935170224       -2.17653324916916
C           -6.63840934393076        0.64355908942290       -1.63677297258954
C           -5.50261633648478        0.65256935754562       -0.84016865216830
C           -4.78159323895187        1.68980482421387       -0.15180169562521
C           -4.97445783633658        3.05650574034633       -0.00909000905889
C           -4.07774524161004        3.77513473614598        0.76047670680275
C           -3.00988736524215        3.14431912044819        1.39532154245205
C           -2.79766088025314        1.78436626490209        1.26832444168496
C           -3.68007913127085        1.06121780570535        0.47633697869069
C           -3.22717463918063       -2.39854938502166        1.30497923951974
H           -2.62269883440684       -4.21849250057056        2.24977241045184
H           -0.24291008990237       -3.83351524492108        1.95093184124381
H            1.59563100339957       -3.74506585311873        1.04602205943030
H            3.90626101422676       -3.33568191087258        0.59295391462588
H            5.63115863412271       -3.06819785344161       -0.30150395763778
H            7.80466872031956       -2.68139382606104       -1.30797228330539
H            8.48168474410734       -0.39196500749637       -1.97349551071614
H            7.01037027684118        1.49280678013499       -1.54386261229022
H            6.06666853589793        2.98920753292880       -0.69853511596589
H            4.64394855730906        4.86953785144128       -0.11951696826988
H            2.33510706402921        4.47314750741761        0.69184345919013
H            1.49904706077590        2.19987697545474        0.90554778912010
H            0.74314972254745        0.42963568940385        0.50821801617273
H           -1.12902948164193       -0.13126313799777       -0.07194685064648
H           -4.66727140341732       -2.66633867455197       -0.98958258061008
H           -6.70016662114381       -2.65752618516266       -2.38838212276646
H           -7.94172295726711       -0.58625360787328       -2.79851636261060
H           -7.17809748960106        1.55781042239092       -1.83293338267460
H           -5.81068501214738        3.54511003756404       -0.48611835200639
H           -4.20865647302486        4.84040448340786        0.88096114034588
H           -2.33592205543647        3.72993704839234        2.00334358625277
H           -1.98036206388277        1.29787811822196        1.77888657920600
H           -4.28081023625584       -2.54736674139030        1.47951413352110
