60
 energy: -91.828056793611 gnorm: 0.000049914844 xtb: 6.7.1 (edcfbbe)
C           -2.31997185775131       -2.91970227962145        2.18779187377948
C           -0.98268731906462       -2.79450491538594        1.85789869089349
C           -0.56235211524957       -1.79590278122503        0.98123343588205
C            0.85812860108546       -1.65123211934019        0.62894099935868
C            1.65192882173078       -2.77094178277434        0.36756822140514
C            2.97241772619449       -2.61570683559026        0.02786350427241
C            3.57676154246329       -1.35277174943246       -0.06056362967004
C            4.96757755794930       -1.19685296789074       -0.44433405843294
C            5.75483846948198       -2.29694470326135       -0.81531296630685
C            7.07026590127167       -2.15567839075576       -1.18780896025636
C            7.64659525540572       -0.89169313562623       -1.20726462639527
C            6.89526533974262        0.20392225496711       -0.85403054618830
C            5.55302940203319        0.08814287096937       -0.46458982426863
C            4.76176573450296        1.25247127588024       -0.10505197151150
C            5.32297494345517        2.53719084891349       -0.06424263648303
C            4.57405272173100        3.64820475282137        0.24265227109110
C            3.21979445119598        3.50859014273834        0.51865063526580
C            2.64832976038045        2.25859238201417        0.50189177122586
C            3.39173576696971        1.10718589202185        0.20463033000473
C            2.79113961863789       -0.21591106165537        0.22941367557879
C            1.44313372146958       -0.40063905112775        0.55733180087470
C           -1.51051231467461       -0.93524222206673        0.43770263809487
C           -2.85345524315931       -1.05915605185341        0.77203176076472
N           -3.79429280841201       -0.17426834954906        0.21999127852659
C           -4.96351514336888       -0.52862583491026       -0.42189812953641
C           -5.46712929891207       -1.78963820156019       -0.70993544605946
C           -6.66682229527412       -1.86595209526982       -1.39130661073348
C           -7.35219492636116       -0.71930014973164       -1.78895843174504
C           -6.84446736970590        0.53767004585497       -1.52672161828489
C           -5.63956448175687        0.64061188863685       -0.84282717416044
C           -4.83042085526852        1.75165402124124       -0.42593187039853
C           -4.96648640862521        3.13002746522870       -0.53489550708060
C           -3.98716774063057        3.93762499718001        0.00850581451821
C           -2.89052053173987        3.38801743768241        0.67028478827591
C           -2.73392378897850        2.02069879366175        0.79239479162044
C           -3.70090739496417        1.20262867935070        0.22463641275135
C           -3.25965702506984       -2.05510350010803        1.65527488131039
H           -2.63420093083424       -3.69084339462188        2.87588221824993
H           -0.25480208082427       -3.46019216933585        2.29691641169719
H            1.21836191023460       -3.75920410346519        0.41075618728175
H            3.54724628870226       -3.50551951870895       -0.17029757816671
H            5.33168045078167       -3.28811959670033       -0.82279113356370
H            7.65025415703818       -3.02272150640670       -1.46896625143464
H            8.67802619793402       -0.76819653637010       -1.50380120681380
H            7.36737153129205        1.17199559827736       -0.89166879922250
H            6.37115521215786        2.67751211594722       -0.27169906047257
H            5.03720569083194        4.62392946329672        0.26651028565843
H            2.61906325915453        4.37575790951008        0.75170618576507
H            1.59737448954500        2.18369122964457        0.72808535045216
H            0.82469923475911        0.45057291165948        0.78922590787333
H           -1.21004814479807       -0.18149476381222       -0.27522230587438
H           -4.93605721081026       -2.68374839149285       -0.41976489425547
H           -7.08131731389705       -2.83621276585109       -1.62407527789898
H           -8.28922192062504       -0.82069574756413       -2.31686089696043
H           -7.36863928272544        1.42562643498472       -1.84787673276128
H           -5.82458483287194        3.55737409997072       -1.03223412139362
H           -4.07287792446860        5.01174095555537       -0.06916229419164
H           -2.14949420151842        4.04622899311106        1.10060575505090
H           -1.89380329682248        1.60248652116352        1.32608576482619
H           -4.30107969898429       -2.13743330921294        1.92762491817278
