  84
       -133.66816030
 O          6.6831833087        4.1787739846        0.2721854764
 C          6.5119640425        3.0066104604       -0.0052083092
 C          7.6439755219        2.1097337900       -0.3464905896
 C          7.6440330451        0.7611967814        0.0063282778
 C          8.7335347370       -0.0337861519       -0.2981798118
 C          9.8253337513        0.5033172241       -0.9617733561
 C          9.8369855710        1.8459993010       -1.3050519791
 C          8.7572290226        2.6481405574       -0.9894161030
 C          5.1545328266        2.4045750278       -0.0155605922
 C          4.1914833507        2.9055138733        0.8594316916
 C          2.9173837621        2.3801846419        0.8804092702
 C          2.5712798703        1.3573569188       -0.0019171148
 N          1.2823504625        0.8186811496        0.0163345384
 C          0.9694041777       -0.5268830089        0.0467867736
 C          1.8054483227       -1.6337197267        0.0946054306
 C          1.2260270542       -2.8852177567        0.1349793246
 C         -0.1649864391       -3.0473668340        0.1555653699
 N         -0.7086611593       -4.3397194871        0.1868135667
 C         -0.3579806262       -5.3467635604        1.0628329593
 C          0.5305888470       -5.3224448861        2.1285113632
 C          0.6803237518       -6.4783944096        2.8702714225
 C         -0.0393863796       -7.6333083992        2.5713508000
 C         -0.9426598179       -7.6565041202        1.5277392793
 C         -1.1107827488       -6.5067672955        0.7672777162
 C         -1.9530170552       -6.1733445687       -0.3468942605
 C         -2.8870119442       -6.8870793285       -1.0863458571
 C         -3.5222950750       -6.2551210925       -2.1363451212
 C         -3.2271218360       -4.9327486840       -2.4609419996
 C         -2.3020776140       -4.2020746918       -1.7403851305
 C         -1.6752128608       -4.8252995539       -0.6707621541
 C         -1.0042811453       -1.9425996343        0.1463652301
 C         -0.4355278618       -0.6796369829        0.0877509358
 C         -0.9907707676        0.6444297030        0.0736553767
 C         -2.2917133771        1.1239644561        0.0860790746
 C         -2.4925414221        2.4952474395        0.0207241015
 N         -3.7950450026        3.0142058294        0.0215372344
 C         -4.2603710625        4.0284640772        0.8340430266
 C         -3.6074551532        4.7270468916        1.8397652891
 C         -4.3214647186        5.6916963500        2.5242536028
 C         -5.6570563980        5.9555681363        2.2282856759
 C         -6.3193053287        5.2471833096        1.2459174797
 C         -5.6224594155        4.2728451787        0.5434849694
 C         -5.9874405013        3.3566339775       -0.5000568490
 C         -7.1635747124        3.1286329837       -1.2022869970
 C         -7.1701493577        2.1590111739       -2.1847480724
 C         -6.0190998092        1.4320736808       -2.4808948187
 C         -4.8373404228        1.6409074956       -1.7963318506
 C         -4.8305711496        2.5972585154       -0.7907081115
 C         -1.4023681464        3.3710188629       -0.0649183445
 C         -0.1026351789        2.9086757908       -0.0563549231
 C          0.1028646767        1.5386345497        0.0305730127
 C          3.5201671825        0.8774423088       -0.9040137398
 C          4.8009894786        1.3903598977       -0.9044553175
 H          6.8028854835        0.3450868906        0.5420858268
 H          8.7325332265       -1.0760524423       -0.0151426122
 H         10.6709326726       -0.1235274789       -1.2030846036
 H         10.6910283110        2.2677172582       -1.8135676766
 H          8.7512869008        3.6983175314       -1.2410611905
 H          4.4701546370        3.7002344689        1.5350370426
 H          2.1874429148        2.7438784227        1.5875477617
 H          2.8793250876       -1.5278217801        0.1013376069
 H          1.8515335062       -3.7648183822        0.1408936672
 H          1.0792071852       -4.4268577264        2.3795227830
 H          1.3679930903       -6.4854944214        3.7030843546
 H          0.1081318999       -8.5172551264        3.1736102624
 H         -1.5124311074       -8.5462128935        1.3059732525
 H         -3.1048219496       -7.9161966474       -0.8437374275
 H         -4.2534320207       -6.7913955329       -2.7225804638
 H         -3.7310570840       -4.4689427589       -3.2960989003
 H         -2.0682204886       -3.1828649970       -2.0097568011
 H         -2.0745477035       -2.0673346571        0.1984260045
 H         -3.1304418324        0.4488995792        0.1512007874
 H         -2.5779082641        4.5181076650        2.0891996639
 H         -3.8339357007        6.2515058249        3.3086869071
 H         -6.1794873796        6.7195710548        2.7842518471
 H         -7.3586801824        5.4399916425        1.0270191929
 H         -8.0504886350        3.7038947230       -0.9834623671
 H         -8.0747479605        1.9641992402       -2.7410488215
 H         -6.0500640988        0.6909064318       -3.2658585122
 H         -3.9462583389        1.0850139705       -2.0469732478
 H         -1.5929856033        4.4293724832       -0.1566306018
 H          0.7240124689        3.5971084073       -0.1403776328
 H          3.2392798390        0.1154871019       -1.6154491517
 H          5.5230999654        1.0253968736       -1.6197265547
