  84
       -133.66816030
 O          6.6831833087        4.1787739846        0.2721854764
 C          6.5119640425        3.0066104604       -0.0052083092
 C          7.6439755219        2.1097337900       -0.3464905896
 C          7.6440330451        0.7611967814        0.0063282778
 C          8.7335347370       -0.0337861519       -0.2981798118
 C          9.8253337513        0.5033172241       -0.9617733561
 C          9.8369855710        1.8459993010       -1.3050519791
 C          8.7572290226        2.6481405574       -0.9894161030
 C          5.1545328266        2.4045750278       -0.0155605922
 C          4.1914833507        2.9055138733        0.8594316916
 C          2.9173837621        2.3801846419        0.8804092702
 C          2.5712798703        1.3573569188       -0.0019171148
 N          1.2823504625        0.8186811496        0.0163345384
 C          0.9694041777       -0.5268830089        0.0467867736
 C          1.8054483227       -1.6337197267        0.0946054306
 C          1.2260270542       -2.8852177567        0.1349793246
 C         -0.1649864391       -3.0473668340        0.1555653699
 N         -0.7086611593       -4.3397194871        0.1868135667
 C         -0.3579806262       -5.3467635604        1.0628329593
 C          0.5305888470       -5.3224448861        2.1285113632
 C          0.6803237518       -6.4783944096        2.8702714225
 C         -0.0393863796       -7.6333083992        2.5713508000
 C         -0.9426598179       -7.6565041202        1.5277392793
 C         -1.1107827488       -6.5067672955        0.7672777162
 C         -1.9530170552       -6.1733445687       -0.3468942605
 C         -2.8870119442       -6.8870793285       -1.0863458571
 C         -3.5222950750       -6.2551210925       -2.1363451212
 C         -3.2271218360       -4.9327486840       -2.4609419996
 C         -2.3020776140       -4.2020746918       -1.7403851305
 C         -1.6752128608       -4.8252995539       -0.6707621541
 C         -1.0042811453       -1.9425996343        0.1463652301
 C         -0.4355278618       -0.6796369829        0.0877509358
 C         -0.9907707676        0.6444297030        0.0736553767
 C         -2.2917133771        1.1239644561        0.0860790746
 C         -2.4925414221        2.4952474395        0.0207241015
 N         -3.7950450026        3.0142058294        0.0215372344
 C         -4.2603710625        4.0284640772        0.8340430266
 C         -3.6074551532        4.7270468916        1.8397652891
 C         -4.3214647186        5.6916963500        2.5242536028
 C         -5.6570563980        5.9555681363        2.2282856759
 C         -6.3193053287        5.2471833096        1.2459174797
 C         -5.6224594155        4.2728451787        0.5434849694
 C         -5.9874405013        3.3566339775       -0.5000568490
 C         -7.1635747124        3.1286329837       -1.2022869970
 C         -7.1701493577        2.1590111739       -2.1847480724
 C         -6.0190998092        1.4320736808       -2.4808948187
 C         -4.8373404228        1.6409074956       -1.7963318506
 C         -4.8305711496        2.5972585154       -0.7907081115
 C         -1.4023681464        3.3710188629       -0.0649183445
 C         -0.1026351789        2.9086757908       -0.0563549231
 C          0.1028646767        1.5386345497        0.0305730127
 C          3.5201671825        0.8774423088       -0.9040137398
 C          4.8009894786        1.3903598977       -0.9044553175
 H          6.8028854835        0.3450868906        0.5420858268
 H          8.7325332265       -1.0760524423       -0.0151426122
 H         10.6709326726       -0.1235274789       -1.2030846036
 H         10.6910283110        2.2677172582       -1.8135676766
 H          8.7512869008        3.6983175314       -1.2410611905
 H          4.4701546370        3.7002344689        1.5350370426
 H          2.1874429148        2.7438784227        1.5875477617
 H          2.8793250876       -1.5278217801        0.1013376069
 H          1.8515335062       -3.7648183822        0.1408936672
 H          1.0792071852       -4.4268577264        2.3795227830
 H          1.3679930903       -6.4854944214        3.7030843546
 H          0.1081318999       -8.5172551264        3.1736102624
 H         -1.5124311074       -8.5462128935        1.3059732525
 H         -3.1048219496       -7.9161966474       -0.8437374275
 H         -4.2534320207       -6.7913955329       -2.7225804638
 H         -3.7310570840       -4.4689427589       -3.2960989003
 H         -2.0682204886       -3.1828649970       -2.0097568011
 H         -2.0745477035       -2.0673346571        0.1984260045
 H         -3.1304418324        0.4488995792        0.1512007874
 H         -2.5779082641        4.5181076650        2.0891996639
 H         -3.8339357007        6.2515058249        3.3086869071
 H         -6.1794873796        6.7195710548        2.7842518471
 H         -7.3586801824        5.4399916425        1.0270191929
 H         -8.0504886350        3.7038947230       -0.9834623671
 H         -8.0747479605        1.9641992402       -2.7410488215
 H         -6.0500640988        0.6909064318       -3.2658585122
 H         -3.9462583389        1.0850139705       -2.0469732478
 H         -1.5929856033        4.4293724832       -0.1566306018
 H          0.7240124689        3.5971084073       -0.1403776328
 H          3.2392798390        0.1154871019       -1.6154491517
 H          5.5230999654        1.0253968736       -1.6197265547
  84
       -133.66807237
 O          6.6216731832        4.1954854934       -0.8178555750
 C          6.4782200741        3.0149469826       -0.5611208600
 C          7.6370713202        2.1200278786       -0.3176903121
 C          7.6332894589        0.7875986603       -0.7267120284
 C          8.7438719587       -0.0065415931       -0.5081436179
 C          9.8609007373        0.5153908212        0.1248170090
 C          9.8761658894        1.8429083810        0.5224216277
 C          8.7746398546        2.6448122062        0.2925994918
 C          5.1291379160        2.4012913337       -0.4706455692
 C          4.8537236700        1.3440703469        0.3956519495
 C          3.5777177069        0.8270525808        0.4809890113
 C          2.5534056750        1.3479766351       -0.3089898431
 N          1.2652257375        0.8134158582       -0.2248331607
 C          0.9461325880       -0.5302665723       -0.2551769712
 C          1.7642064004       -1.6313374973       -0.4673785788
 C          1.1809331816       -2.8815014794       -0.4775831426
 C         -0.1983532136       -3.0459034179       -0.2989249923
 N         -0.7436841556       -4.3387395280       -0.3027923957
 C         -1.5407010163       -4.8766651245        0.6867050642
 C         -1.9606435434       -4.3152715258        1.8840861633
 C         -2.7382510585       -5.0913419293        2.7218091561
 C         -3.0892484797       -6.3972448769        2.3858447652
 C         -2.6604658503       -6.9665688719        1.2035645955
 C         -1.8768302781       -6.2068685231        0.3448438916
 C         -1.2532543519       -6.4720115813       -0.9213054698
 C         -1.2320886042       -7.5746853161       -1.7652686641
 C         -0.5331495536       -7.4859213668       -2.9523279451
 C          0.1291341131       -6.3129427158       -3.3084235538
 C          0.1233196780       -5.2029221769       -2.4858857723
 C         -0.5610540676       -5.2928692275       -1.2822839255
 C         -1.0248121983       -1.9458799218       -0.1221181447
 C         -0.4509283174       -0.6837633922       -0.1022859963
 C         -0.9944118769        0.6390890358        0.0279220063
 C         -2.2834229713        1.1186517080        0.2051200255
 C         -2.4697359360        2.4885442225        0.3197784242
 N         -3.7595417463        3.0089988072        0.5009134315
 C         -4.3361768515        4.0142122485       -0.2482508913
 C         -3.8321826254        4.6994397307       -1.3445206841
 C         -4.6375232521        5.6547352781       -1.9340695516
 C         -5.9182406594        5.9226950589       -1.4554030091
 C         -6.4331464577        5.2295517856       -0.3784210930
 C         -5.6425972356        4.2643607459        0.2314790867
 C         -5.8528851666        3.3630743259        1.3293810489
 C         -6.9132922484        3.1476244790        2.1998176358
 C         -6.7760238850        2.1914112887        3.1858945785
 C         -5.5956291840        1.4632182963        3.3186388036
 C         -4.5273337675        1.6587049426        2.4646525946
 C         -4.6668420944        2.6040628036        1.4585289712
 C         -1.3767984078        3.3632928430        0.2715856381
 C         -0.0907701125        2.9010946163        0.0830594238
 C          0.0974024001        1.5330486357       -0.0571302496
 C          2.8227309132        2.4093331669       -1.1720873667
 C          4.0947372643        2.9364566457       -1.2375545125
 H          6.7701726078        0.3838105603       -1.2364424559
 H          8.7383969927       -1.0366565264       -0.8322682591
 H         10.7220480050       -0.1116291517        0.3018082668
 H         10.7487213701        2.2528229866        1.0085701352
 H          8.7715268338        3.6837189224        0.5872047398
 H          5.6339081395        0.9490069637        1.0291608063
 H          3.3588576955        0.0305113026        1.1762416959
 H          2.8261005919       -1.5203246761       -0.6245791041
 H          1.7941272640       -3.7588375522       -0.6171049891
 H         -1.6802285631       -3.3090860592        2.1582411152
 H         -3.0784388341       -4.6779569353        3.6595316233
 H         -3.6989023451       -6.9709254285        3.0676776327
 H         -2.9226613476       -7.9825338078        0.9492512118
 H         -1.7584202130       -8.4782766699       -1.4970233327
 H         -0.5035507921       -8.3322367054       -3.6222596629
 H          0.6566955487       -6.2695116470       -4.2498077392
 H          0.6270262169       -4.2926901929       -2.7758691725
 H         -2.0910641866       -2.0736291677       -0.0181914755
 H         -3.1254073110        0.4454735167        0.2453797069
 H         -2.8466859243        4.4875476757       -1.7317316977
 H         -4.2666155039        6.2049377598       -2.7862034039
 H         -6.5155380457        6.6789617245       -1.9423685575
 H         -7.4310366570        5.4267261981       -0.0168882855
 H         -7.8225275531        3.7218699281        2.1056587690
 H         -7.5891352635        2.0071877173        3.8720005435
 H         -5.5124896669        0.7320303177        4.1091094385
 H         -3.6101060101        1.1019490426        2.5858274664
 H         -1.5525393897        4.4202934902        0.4015309090
 H          0.7411301812        3.5880400455        0.0688368944
 H          2.0348297539        2.8028872430       -1.7960909907
 H          4.3152676796        3.7619324347       -1.8975781623
  84
       -133.66797173
 O          7.0824710075        2.3897667027       -2.5499689599
 C          6.6610163533        2.2665633582       -1.4156157394
 C          7.5047274650        2.5629428564       -0.2308933024
 C          7.3903499845        1.8337100757        0.9516861940
 C          8.2194544166        2.1158915167        2.0215638606
 C          9.1605419495        3.1289364665        1.9265773764
 C          9.2873016199        3.8502843572        0.7499383109
 C          8.4719162614        3.5615965751       -0.3275990412
 C          5.2734590979        1.8072773431       -1.1500547315
 C          4.5415269103        2.2622151936       -0.0546199497
 C          3.2458529257        1.8319156102        0.1463664135
 C          2.6569507592        0.9364235164       -0.7452966076
 N          1.3498842952        0.4890598010       -0.5336938890
 C          0.9322409477       -0.8277253287       -0.5711073707
 C          1.6684150053       -1.9886321082       -0.7645157332
 C          1.0045511794       -3.1964927174       -0.7049529345
 C         -0.3732918719       -3.2635749534       -0.4618531417
 N         -1.0030930428       -4.5156504105       -0.4070532212
 C         -1.8042489371       -4.9689721253        0.6213111575
 C         -2.1503543595       -4.3473818631        1.8126711773
 C         -2.9575869678       -5.0425828958        2.6923594553
 C         -3.4081477277       -6.3292903529        2.4049849569
 C         -3.0501464917       -6.9610414602        1.2310173427
 C         -2.2396601891       -6.2824604070        0.3302738653
 C         -1.6719232958       -6.6274442317       -0.9427855770
 C         -1.7481399915       -7.7548613006       -1.7499428770
 C         -1.0800198531       -7.7500167680       -2.9579483366
 C         -0.3534814506       -6.6350830910       -3.3707925504
 C         -0.2620776182       -5.5022163352       -2.5852816525
 C         -0.9136133174       -5.5092093713       -1.3601294527
 C         -1.1103105364       -2.1071828575       -0.2528092928
 C         -0.4526002978       -0.8872880727       -0.2945483569
 C         -0.8866453240        0.4656324816       -0.0894586247
 C         -2.1234687320        1.0294969208        0.1826181161
 C         -2.2084785261        2.4080557206        0.3133393036
 N         -3.4410595796        3.0072440867        0.6103341338
 C         -4.0184966506        4.0574277008       -0.0739027960
 C         -3.5756222021        4.7255054328       -1.2067798650
 C         -4.3682905445        5.7394569709       -1.7092294023
 C         -5.5787333050        6.0817286994       -1.1102627649
 C         -6.0365176856        5.4046483298        0.0021973689
 C         -5.2574682022        4.3812669748        0.5259289564
 C         -5.4260771722        3.4761040099        1.6278018111
 C         -6.4178863896        3.3104488830        2.5856718367
 C         -6.2563175204        2.3286084484        3.5423992615
 C         -5.1173795379        1.5264277988        3.5604386445
 C         -4.1172466436        1.6720425599        2.6183960149
 C         -4.2839185438        2.6427420846        1.6409396787
 C         -1.0725704590        3.2105383328        0.1467042006
 C          0.1606200823        2.6638425598       -0.1434154346
 C          0.2573494652        1.2825152598       -0.2396416931
 C          3.3793965435        0.4930706452       -1.8523938548
 C          4.6703033001        0.9328135913       -2.0531005583
 H          6.6709435535        1.0305355984        1.0213060770
 H          8.1330609130        1.5423574078        2.9323291243
 H          9.8009239834        3.3498634379        2.7674881229
 H         10.0265773515        4.6333640738        0.6713528604
 H          8.5618356377        4.1069839177       -1.2553186264
 H          4.9841869590        2.9663820305        0.6343042518
 H          2.6883615760        2.1709010223        1.0065438245
 H          2.7338775432       -1.9576021784       -0.9328696185
 H          1.5545574336       -4.1168737955       -0.8297928848
 H         -1.7923259157       -3.3571851548        2.0520948467
 H         -3.2432253611       -4.5791583809        3.6251981282
 H         -4.0395307957       -6.8384241939        3.1177364355
 H         -3.3871286377       -7.9635116220        1.0145011437
 H         -2.3232830509       -8.6131304236       -1.4368247693
 H         -1.1250116869       -8.6171432653       -3.5997302225
 H          0.1457936497       -6.6552481274       -4.3283115672
 H          0.2892835212       -4.6363643205       -2.9205197346
 H         -2.1714357102       -2.1593992359       -0.0659779120
 H         -3.0050923100        0.4148813389        0.2756271890
 H         -2.6478786087        4.4558265434       -1.6889792949
 H         -4.0433105933        6.2765638409       -2.5880594500
 H         -6.1681138111        6.8821562836       -1.5320302941
 H         -6.9822084723        5.6584114588        0.4567812072
 H         -7.2937408933        3.9414487947        2.5797514021
 H         -7.0167117153        2.1816537674        4.2947676549
 H         -5.0127194299        0.7755367753        4.3295605562
 H         -3.2304330299        1.0567430243        2.6507336460
 H         -1.1710607763        4.2795990871        0.2578824840
 H          1.0192831926        3.2999947300       -0.2930752365
 H          2.9130306990       -0.1750247297       -2.5604816628
 H          5.2354401838        0.6063057418       -2.9131219919
  84
       -133.66792488
 O          7.1005037645        2.2468981379       -2.5804078005
 C          6.6754523043        2.1855823128       -1.4422552098
 C          7.5182801385        2.5381528095       -0.2729098116
 C          8.5232569045        3.4907697941       -0.4336784657
 C          9.3476495249        3.8216321425        0.6243051318
 C          9.1906874272        3.1891813079        1.8475717386
 C          8.2090593946        2.2242103740        2.0090991572
 C          7.3716869425        1.8999859442        0.9577074810
 C          5.2853422607        1.7435241653       -1.1586220021
 C          4.5311811574        2.2972515765       -0.1255130881
 C          3.2328833379        1.8817409269        0.0902397795
 C          2.6675269845        0.8979070878       -0.7196125558
 N          1.3598931935        0.4604622060       -0.4873991319
 C          0.9580519073       -0.8573056273       -0.3847333984
 C          1.7113580675       -2.0219768531       -0.4338620051
 C          1.0569990045       -3.2262211717       -0.2755863108
 C         -0.3231268712       -3.2840546198       -0.0431656875
 N         -0.9454669851       -4.5308343194        0.1138624184
 C         -0.5387340087       -5.5390644646        0.9640803571
 C          0.5096311733       -5.5608158388        1.8731452902
 C          0.6859805902       -6.7045842888        2.6278528024
 C         -0.1617486829       -7.8021522554        2.4946747469
 C         -1.2214078441       -7.7772094181        1.6103312666
 C         -1.4190066197       -6.6388406182        0.8398981154
 C         -2.4015252502       -6.2662531108       -0.1386974337
 C         -3.4975321157       -6.9178141865       -0.6890659538
 C         -4.2424399720       -6.2636350553       -1.6495282110
 C         -3.8985190432       -4.9815036443       -2.0726710023
 C         -2.8132368160       -4.3127894486       -1.5400566950
 C         -2.0735653855       -4.9564082498       -0.5580983171
 C         -1.0748989174       -2.1206425468        0.0371674415
 C         -0.4334653742       -0.9043534150       -0.1396306195
 C         -0.8884678728        0.4569817733       -0.1086272641
 C         -2.1376937818        1.0327504569        0.0663464708
 C         -2.2451131236        2.4141605269       -0.0017670338
 N         -3.4965993190        3.0284013304        0.1520395034
 C         -4.6471704184        2.6953423967       -0.5340840809
 C         -4.8432669305        1.7402204661       -1.5215142135
 C         -6.1071296373        1.6269144548       -2.0679107680
 C         -7.1552992325        2.4458280027       -1.6532659472
 C         -6.9611768843        3.4127756192       -0.6874999532
 C         -5.6993141158        3.5459388206       -0.1229781371
 C         -5.1467381487        4.4301557798        0.8642016868
 C         -5.6786005902        5.4575360381        1.6323281463
 C         -4.8542207800        6.1096967507        2.5271425831
 C         -3.5188259379        5.7396084308        2.6719445628
 C         -2.9666759871        4.7212399003        1.9190724463
 C         -3.7841900875        4.0773712432        1.0010271854
 C         -1.1153021113        3.2058753268       -0.2452701343
 C          0.1362546279        2.6476009412       -0.4035996102
 C          0.2504777712        1.2666051810       -0.3225018254
 C          3.4132749129        0.3527579729       -1.7635305817
 C          4.7047838406        0.7820794265       -1.9839647082
 H          8.6359959927        3.9651491847       -1.3972324479
 H         10.1179445349        4.5670518036        0.4946764218
 H          9.8388701237        3.4419515695        2.6734400714
 H          8.0979885461        1.7198520541        2.9576099285
 H          6.6206117762        1.1329107946        1.0810126633
 H          4.9592085147        3.0660442317        0.5007977101
 H          2.6543856695        2.3012639450        0.8996437025
 H          2.7788001473       -1.9947633946       -0.5900801986
 H          1.6121615376       -4.1495737243       -0.3394691079
 H          1.1607305279       -4.7083830260        1.9971419407
 H          1.4974491671       -6.7474020551        3.3393319221
 H          0.0115908731       -8.6789597487        3.1004420858
 H         -1.8879264550       -8.6214242973        1.5186810987
 H         -3.7552186792       -7.9168733778       -0.3715228526
 H         -5.0999497305       -6.7514094408       -2.0883979844
 H         -4.4915911610       -4.5007469589       -2.8366104729
 H         -2.5443606620       -3.3261704641       -1.8867886673
 H         -2.1317345005       -2.1651602014        0.2488762676
 H         -3.0077295219        0.4234543182        0.2545229175
 H         -4.0330886883        1.1131656221       -1.8625394871
 H         -6.2856596862        0.8891440510       -2.8362336661
 H         -8.1292765321        2.3242064350       -2.1032089926
 H         -7.7693963687        4.0575767577       -0.3769796098
 H         -6.7171750899        5.7341172668        1.5309323139
 H         -5.2474082990        6.9129027990        3.1322272938
 H         -2.9023146125        6.2580760260        3.3914227428
 H         -1.9351425604        4.4299876301        2.0500784122
 H         -1.2391625542        4.2749902569       -0.3274672313
 H          0.9925740397        3.2710458415       -0.6101423352
 H          2.9648548325       -0.3869709881       -2.4093682323
 H          5.2866949163        0.3783335280       -2.7988653751
  84
       -133.66785878
 O          7.1730470527        2.3419039172       -2.2501922626
 C          6.7082657245        2.2544612499       -1.1294284507
 C          7.4976348759        2.6133001365        0.0752055911
 C          7.3582562262        1.9184355848        1.2755051925
 C          8.1395399296        2.2562483897        2.3650195814
 C          9.0557994514        3.2920222189        2.2720528718
 C          9.2062235064        3.9805143628        1.0788417743
 C          8.4399958749        3.6356252000       -0.0180918062
 C          5.3182257064        1.7821199670       -0.9021382836
 C          4.5352358117        2.2680195458        0.1437303465
 C          3.2350873663        1.8333064296        0.3020826403
 C          2.6942959469        0.9006421852       -0.5818411511
 N          1.3796589792        0.4548448175       -0.4173856419
 C          0.9678178654       -0.8637499924       -0.4217660229
 C          1.7184944410       -2.0272643681       -0.5173442007
 C          1.0541763595       -3.2350836065       -0.4621670647
 C         -0.3344367162       -3.2990115739       -0.2900535147
 N         -0.9650409143       -4.5507853060       -0.2379692698
 C         -0.6008466897       -5.6073940590        0.5713893015
 C          0.3941080781       -5.6801298437        1.5360373261
 C          0.5323274784       -6.8654666848        2.2322439241
 C         -0.3005900372       -7.9549784605        1.9865723120
 C         -1.3067616248       -7.8811182449        1.0443645874
 C         -1.4659809927       -6.6999466090        0.3315874297
 C         -2.3930112986       -6.2717556980       -0.6779664815
 C         -3.4511302922       -6.8918303779       -1.3295133445
 C         -4.1446112300       -6.1819065406       -2.2889956769
 C         -3.7872690607       -4.8742849379       -2.6109304259
 C         -2.7387411365       -4.2359244958       -1.9769147408
 C         -2.0505089670       -4.9376163650       -0.9974823757
 C         -1.0851001069       -2.1389746676       -0.1648356575
 C         -0.4324047623       -0.9176203109       -0.2340749633
 C         -0.8814578215        0.4416604145       -0.1214491297
 C         -2.1344560186        1.0139477304        0.0368137748
 C         -2.2288384213        2.3970920852        0.0912814582
 N         -3.4783699505        3.0082682511        0.2700589906
 C         -4.0004847780        4.0258036168       -0.5025336105
 C         -3.4800875201        4.6306750508       -1.6379719625
 C         -4.2291916601        5.6221552292       -2.2417748055
 C         -5.4715687556        6.0036164399       -1.7395759211
 C         -6.0056049632        5.3888279961       -0.6250651004
 C         -5.2717362572        4.3886983782       -0.0007916460
 C         -5.5191222476        3.5430447987        1.1329537048
 C         -6.5714975631        3.4342561694        2.0325095912
 C         -6.4814178209        2.5018184902        3.0464131071
 C         -5.3545159718        1.6931252010        3.1779479093
 C         -4.2948189408        1.7829052668        2.2959417940
 C         -4.3885742486        2.7036295610        1.2620113677
 C         -1.0845122195        3.1950579831       -0.0354009152
 C          0.1659009950        2.6396608836       -0.2120209559
 C          0.2689235885        1.2557491072       -0.2343572601
 C          3.4702108692        0.4206117805       -1.6360567450
 C          4.7646564150        0.8666866242       -1.7962099787
 H          6.6569274645        1.0992402261        1.3445728290
 H          8.0341715993        1.7094797510        3.2903053215
 H          9.6578228258        3.5571152666        3.1283457139
 H          9.9251498121        4.7825023777        1.0028563327
 H          8.5496607155        4.1545668328       -0.9587869473
 H          4.9418066498        2.9996126523        0.8262364793
 H          2.6353808592        2.1990625454        1.1219955733
 H          2.7914199775       -1.9964671580       -0.6289680139
 H          1.6080666425       -4.1562386743       -0.5604064270
 H          1.0327763048       -4.8350013835        1.7458106812
 H          1.3006842223       -6.9477873406        2.9868245772
 H         -0.1586612984       -8.8648770159        2.5503681649
 H         -1.9618432984       -8.7201678809        0.8646233820
 H         -3.7190239777       -7.9098629284       -1.0901413999
 H         -4.9716662004       -6.6449707552       -2.8061908410
 H         -4.3404157673       -4.3485953919       -3.3752421451
 H         -2.4588173394       -3.2278440806       -2.2442275795
 H         -2.1500877608       -2.1911270632       -0.0006914830
 H         -3.0202811355        0.4015086671        0.0999261093
 H         -2.5264218024        4.3299081306       -2.0454139395
 H         -3.8443661376        6.1099307671       -3.1251223510
 H         -6.0246448929        6.7852531037       -2.2385360128
 H         -6.9751019314        5.6731990887       -0.2447001148
 H         -7.4381403170        4.0710620144        1.9388321792
 H         -7.2896878697        2.3992002721        3.7549657487
 H         -5.3066411669        0.9820451964        3.9895696918
 H         -3.4186972104        1.1632646901        2.4162485814
 H         -1.1914273425        4.2678949281        0.0152115341
 H          1.0332972412        3.2702186307       -0.3322461130
 H          3.0421694399       -0.2798310347       -2.3371776816
 H          5.3701389014        0.5148345138       -2.6179777357
  84
       -133.66751157
 O          6.9869945070        2.4297939720       -2.8370610328
 C          6.5990608480        2.2289170165       -1.7024329544
 C          7.5008200431        2.3463226883       -0.5299882233
 C          7.3239298293        1.5647211551        0.6110683063
 C          8.2115193006        1.6689708296        1.6657934545
 C          9.2750198036        2.5550558674        1.5975923008
 C          9.4623403183        3.3286823741        0.4628931705
 C          8.5866213204        3.2178531847       -0.5998584670
 C          5.1950311515        1.8299706923       -1.4184395502
 C          4.5028504112        2.3215645536       -0.3134231540
 C          3.2009067593        1.9301451906       -0.0752559920
 C          2.5746228052        1.0265258079       -0.9316972092
 N          1.2773139322        0.5787110854       -0.6602359793
 C          0.8920764029       -0.7460602908       -0.5965489043
 C          1.6509068165       -1.8973698412       -0.7549758160
 C          1.0252246050       -3.1146712781       -0.5859038082
 C         -0.3371082985       -3.1996730144       -0.2708813746
 N         -0.9233790046       -4.4623655159       -0.0997933646
 C         -1.6491123540       -4.8695919923        1.0013373012
 C         -1.9607090470       -4.1747594941        2.1613301476
 C         -2.6879767625       -4.8348180326        3.1330021270
 C         -3.0937754480       -6.1571349638        2.9657081000
 C         -2.7687931172       -6.8602777942        1.8231115845
 C         -2.0377832082       -6.2185853035        0.8318988590
 C         -1.5178477086       -6.6361041878       -0.4398240821
 C         -1.5780139042       -7.8256154138       -1.1539352950
 C         -0.9669069826       -7.8867786972       -2.3902529972
 C         -0.3143927436       -6.7768963466       -2.9229515504
 C         -0.2410376994       -5.5828144070       -2.2319826308
 C         -0.8333515014       -5.5221790272       -0.9784922205
 C         -1.0971804691       -2.0514355438       -0.1029219645
 C         -0.4769387873       -0.8199503468       -0.2527706904
 C         -0.9356006442        0.5337301070       -0.1156792671
 C         -2.1693267743        1.0888358169        0.1881100263
 C         -2.2859936156        2.4710815059        0.2117830893
 N         -3.5248809623        3.0633820695        0.4981787188
 C         -4.7241883895        2.7549899137       -0.1120255394
 C         -4.9901467828        1.8602069927       -1.1388627975
 C         -6.2933890680        1.7604603334       -1.5865583302
 C         -7.3131920328        2.5344305749       -1.0368314771
 C         -7.0510614212        3.4426446553       -0.0309383937
 C         -5.7484932081        3.5611650857        0.4359498570
 C         -5.1267256547        4.3912228903        1.4288976518
 C         -5.6059805676        5.3599790662        2.3007861670
 C         -4.7188735693        5.9691003742        3.1653908541
 C         -3.3719188552        5.6130554899        3.1777448468
 C         -2.8714277114        4.6524025063        2.3200998565
 C         -3.7536567468        4.0527422970        1.4324947546
 C         -1.1804023831        3.2850341827       -0.0674192729
 C          0.0573991868        2.7468237431       -0.3532644104
 C          0.1809690566        1.3643533705       -0.3662110328
 C          3.2540718494        0.5545408780       -2.0531355297
 C          4.5476286294        0.9652080337       -2.2981759661
 H          6.5073005790        0.8588031458        0.6598157036
 H          8.0746664792        1.0551406234        2.5437807178
 H          9.9620360025        2.6366572192        2.4267892138
 H         10.2956105644        4.0128994087        0.4054770860
 H          8.7214246479        3.8044657255       -1.4964998575
 H          4.9850115680        3.0190960446        0.3556493014
 H          2.6698254671        2.2997837539        0.7891696112
 H          2.7053164445       -1.8488805841       -0.9799210250
 H          1.5942364649       -4.0273130546       -0.6778480648
 H         -1.6358598208       -3.1554582136        2.3079760101
 H         -2.9444599241       -4.3148406545        4.0442625546
 H         -3.6630971075       -6.6368634983        3.7477537126
 H         -3.0700844551       -7.8895421618        1.6998255260
 H         -2.0962074264       -8.6810632809       -0.7476590350
 H         -0.9996224630       -8.8030281638       -2.9605543210
 H          0.1417350111       -6.8508095483       -3.8991478608
 H          0.2527508387       -4.7227956570       -2.6593213967
 H         -2.1466786229       -2.1187825999        0.1373658099
 H         -3.0204710194        0.4630627256        0.4063250506
 H         -4.2041968942        1.2685667213       -1.5840049029
 H         -6.5260120416        1.0688836822       -2.3828827067
 H         -8.3195267156        2.4245622878       -1.4124420712
 H         -7.8380702412        4.0534987485        0.3848398956
 H         -6.6525401190        5.6248352007        2.3011258681
 H         -5.0704533445        6.7267537690        3.8496485267
 H         -2.7046366241        6.0964405314        3.8760332968
 H         -1.8293232296        4.3709735818        2.3489799846
 H         -1.3132795128        4.3562055278       -0.0736295131
 H          0.8955871421        3.3871081975       -0.5820510415
 H          2.7551077624       -0.1188610028       -2.7336377795
 H          5.0802855399        0.6140064622       -3.1691187783
