  84
  -133.154581855000       0.236335570597459      !
 O          6.6907103026        4.1533796338       -0.3183948432
 C          6.5162963301        2.9848258348       -0.0281803213
 C          7.6402210953        2.1003265620        0.3687189149
 C          7.6713755085        0.7518071999        0.0177123320
 C          8.7502837288       -0.0330260366        0.3807801275
 C          9.8000656091        0.5145435400        1.1011490991
 C          9.7814666389        1.8576666296        1.4421766255
 C          8.7127444629        2.6497757981        1.0685142911
 C          5.1620222345        2.3763156599       -0.0491265423
 C          4.7952566538        1.3568009754        0.8284345266
 C          3.5146714880        0.8445833060        0.8057256116
 C          2.5780724169        1.3322509363       -0.1051015189
 N          1.2854102088        0.8024630399       -0.1294802691
 C          0.9645107727       -0.5411181142       -0.1355542486
 C          1.7945052029       -1.6506413593       -0.2174009406
 C          1.2092003438       -2.8997849931       -0.2341391375
 C         -0.1818648932       -3.0556993963       -0.1893518939
 N         -0.7302706536       -4.3472310581       -0.1941570245
 C         -1.6259016837       -4.8424091737        0.7312341028
 C         -2.1620964507       -4.2306827548        1.8552990277
 C         -3.0242185117       -4.9702170603        2.6417932072
 C         -3.3457564558       -6.2889476134        2.3271237790
 C         -2.8023332111       -6.9079643569        1.2192969863
 C         -1.9321692280       -6.1856761652        0.4132293788
 C         -1.1849943502       -6.5044392432       -0.7710010821
 C         -1.0839049174       -7.6418003429       -1.5614451871
 C         -0.2680392308       -7.6036739877       -2.6742857572
 C          0.4325526238       -6.4471694573       -3.0103973127
 C          0.3489387225       -5.3033822212       -2.2400030757
 C         -0.4541158445       -5.3420000058       -1.1091948115
 C         -1.0166257038       -1.9487133731       -0.1434918852
 C         -0.4415779156       -0.6872156817       -0.1186368417
 C         -0.9890234822        0.6402688374       -0.0997886895
 C         -2.2870066657        1.1276303165       -0.0743418793
 C         -2.4773170687        2.5012508431       -0.0367497292
 N         -3.7762908438        3.0296345154       -0.0091867079
 C         -4.2692952945        4.0026264981       -0.8544337149
 C         -3.6536639225        4.6406316660       -1.9218145094
 C         -4.3905876184        5.5706259016       -2.6294762671
 C         -5.7118444699        5.8593067519       -2.2946555996
 C         -6.3364184146        5.2125841528       -1.2472192562
 C         -5.6163169201        4.2735716635       -0.5204115599
 C         -5.9409653338        3.4196009050        0.5874080529
 C         -7.0850232007        3.2417309936        1.3542428196
 C         -7.0528560384        2.3279580394        2.3884179826
 C         -5.8954922576        1.6053467333        2.6704812605
 C         -4.7453476647        1.7639618287        1.9216346555
 C         -4.7777678744        2.6660433991        0.8677624742
 C         -1.3808816821        3.3725543897       -0.0106785344
 C         -0.0846357106        2.9020649053       -0.0484162741
 C          0.1101165356        1.5292094173       -0.1112749701
 C          2.9384766274        2.3560361774       -0.9802721833
 C          4.2131215978        2.8791923966       -0.9386424308
 H          6.8623061441        0.3273375164       -0.5594123412
 H          8.7726312680       -1.0759130039        0.1012968636
 H         10.6358380069       -0.1049322682        1.3906120337
 H         10.6023415037        2.2872555160        1.9965603077
 H          8.6848821040        3.7002043362        1.3174172507
 H          5.5054234395        0.9884103796        1.5537260957
 H          3.2227375873        0.0782558232        1.5080580077
 H          2.8673806306       -1.5469795260       -0.2707644711
 H          1.8291009830       -3.7825846644       -0.2738864763
 H         -1.9059786106       -3.2139730941        2.1139644674
 H         -3.4555178219       -4.5173842364        3.5220554636
 H         -4.0240361216       -6.8329561234        2.9671821405
 H         -3.0423799848       -7.9336168409        0.9826093114
 H         -1.6390497990       -8.5329482035       -1.3101933098
 H         -0.1749229011       -8.4775571305       -3.3016547454
 H          1.0528480867       -6.4438565453       -3.8944980275
 H          0.8838062438       -4.4065051769       -2.5154322255
 H         -2.0885281785       -2.0713451715       -0.1428198705
 H         -3.1319991480        0.4572378866       -0.0913431227
 H         -2.6350899456        4.4120022271       -2.1979847345
 H         -3.9327115372        6.0841186061       -3.4620038448
 H         -6.2531380055        6.5946649280       -2.8709268410
 H         -7.3647957737        5.4254312235       -0.9972098534
 H         -7.9772721498        3.8120069582        1.1444579197
 H         -7.9320903901        2.1733559855        2.9957687816
 H         -5.8962954677        0.9081640702        3.4953009699
 H         -3.8477956436        1.2122967157        2.1583480120
 H         -1.5637385210        4.4342023840        0.0563136055
 H          0.7477572729        3.5873182180       -0.0071340733
 H          2.2196639049        2.7233248708       -1.6968340132
 H          4.5032936590        3.6759161260       -1.6070035865
  84
  -133.154343521000       0.183653144619542      !
 O          6.6415477704        4.1827054775        0.7720065985
 C          6.4935867884        2.9999664788        0.5281486774
 C          7.6499534813        2.0888208007        0.3412236359
 C          7.6077769005        0.7563960443        0.7485301848
 C          8.7186262877       -0.0513686801        0.5895749499
 C          9.8745491720        0.4565892116        0.0180134204
 C          9.9273813360        1.7835606500       -0.3783786853
 C          8.8251359425        2.5989418938       -0.2076762393
 C          5.1412632686        2.3988106448        0.4056492942
 C          4.0970760029        2.9368261282        1.1568002846
 C          2.8248581015        2.4135839283        1.0706618307
 C          2.5648348138        1.3545873895        0.2015366812
 N          1.2780743925        0.8179039075        0.1117470179
 C          0.9571305812       -0.5249919943        0.1668041473
 C          1.7786697107       -1.6292995067        0.3454723671
 C          1.1920736939       -2.8776411057        0.3794538631
 C         -0.1946558576       -3.0379769821        0.2658395821
 N         -0.7449640797       -4.3275428226        0.2960858190
 C         -0.4895946021       -5.2968740545        1.2446151918
 C          0.2867129153       -5.2280588664        2.3928436862
 C          0.3550303911       -6.3517200730        3.1938218654
 C         -0.3363395120       -7.5178196513        2.8722912046
 C         -1.1295023587       -7.5845720513        1.7444602033
 C         -1.2142514761       -6.4678976367        0.9232916981
 C         -1.9378211229       -6.1813665781       -0.2834624003
 C         -2.7956672896       -6.9251718361       -1.0830911367
 C         -3.3183941602       -6.3377792303       -2.2176310736
 C         -2.9854869879       -5.0304727162       -2.5658862301
 C         -2.1345517976       -4.2705365811       -1.7866559242
 C         -1.6221429139       -4.8483696163       -0.6338297974
 C         -1.0233457587       -1.9341035168        0.1253147366
 C         -0.4454619533       -0.6750721283        0.0716410740
 C         -0.9900018650        0.6475350257       -0.0541864215
 C         -2.2831857530        1.1279132157       -0.1937279116
 C         -2.4697185842        2.4953251587       -0.3365924556
 N         -3.7630896131        3.0146020835       -0.4894875367
 C         -4.3033017539        4.0625524739        0.2284153951
 C         -3.7521002567        4.8026314705        1.2648778357
 C         -4.5270066662        5.7957509954        1.8324306124
 C         -5.8245086173        6.0476482095        1.3919003094
 C         -6.3874053251        5.2987680982        0.3781173657
 C         -5.6278059519        4.2952202081       -0.2086030756
 C         -5.8897827150        3.3359439249       -1.2443592598
 C         -6.9899327763        3.0791502911       -2.0519050409
 C         -6.9017844762        2.0688862149       -2.9884069460
 C         -5.7302195907        1.3294241113       -3.1356740291
 C         -4.6227789207        1.5663179625       -2.3443146085
 C         -4.7131412362        2.5643016878       -1.3842128760
 C         -1.3722396354        3.3660698129       -0.3480680697
 C         -0.0822989757        2.9037554154       -0.1885101569
 C          0.1067052104        1.5384929507       -0.0237816561
 C          3.5977767532        0.8364402466       -0.5788721688
 C          4.8745450460        1.3481457433       -0.4711196127
 H          6.7147360534        0.3637781901        1.2133334536
 H          8.6839410918       -1.0807441803        0.9145566358
 H         10.7371720996       -0.1803771821       -0.1098866719
 H         10.8305222959        2.1829252144       -0.8150337013
 H          8.8497757588        3.6375514153       -0.5024903789
 H          4.3098202927        3.7592233750        1.8231963657
 H          2.0288962383        2.8072507561        1.6843415468
 H          2.8468568394       -1.5238281748        0.4564816453
 H          1.8094991802       -3.7565652289        0.4856080716
 H          0.8114598721       -4.3229805786        2.6603116258
 H          0.9548765903       -6.3240194907        4.0915602038
 H         -0.2547952925       -8.3756140987        3.5229671191
 H         -1.6782236270       -8.4825293484        1.5036722125
 H         -3.0418922920       -7.9429938923       -0.8208050053
 H         -3.9890651510       -6.8979252574       -2.8518709622
 H         -3.4000917341       -4.6020798452       -3.4665172154
 H         -1.8697027113       -3.2637533443       -2.0735027989
 H         -2.0939804650       -2.0559129805        0.0739003818
 H         -3.1274634412        0.4566844171       -0.1856080378
 H         -2.7540952794        4.6038272475        1.6258526974
 H         -4.1186276898        6.3879253832        2.6380129524
 H         -6.3967926432        6.8347599654        1.8595316288
 H         -7.3983551842        5.4827517259        0.0471762729
 H         -7.8916335461        3.6636533824       -1.9483750862
 H         -7.7463973953        1.8512621014       -3.6247948837
 H         -5.6852075596        0.5557694335       -3.8879293280
 H         -3.7136187055        0.9998190317       -2.4798604164
 H         -1.5474656399        4.4197123694       -0.5029607719
 H          0.7519370040        3.5875483205       -0.2172017923
 H          3.3866115064        0.0452664585       -1.2824821872
 H          5.6635334176        0.9528716664       -1.0936228340
  84
  -133.154250623900       0.166458439061605      !
 O          7.3191820275        2.3182244112       -1.8520616051
 C          6.7797366266        2.2269540316       -0.7656782953
 C          7.4942001534        2.5567417333        0.4929075939
 C          7.2533041212        1.8610952310        1.6767158415
 C          7.9653534666        2.1734524056        2.8199994772
 C          8.9140482462        3.1835848382        2.7967845912
 C          9.1666063119        3.8715191209        1.6204125709
 C          8.4689911056        3.5524448060        0.4711496466
 C          5.3705874691        1.7750877276       -0.6356901241
 C          4.5281484155        2.2605779321        0.3629420597
 C          3.2172796910        1.8358834613        0.4376556313
 C          2.7235074881        0.9155222406       -0.4858696959
 N          1.4001391878        0.4740675016       -0.4013309423
 C          0.9851038855       -0.8433225037       -0.4458065977
 C          1.7343472222       -2.0090877627       -0.5275951788
 C          1.0645201373       -3.2149077104       -0.5047897532
 C         -0.3314922309       -3.2753570151       -0.4070945182
 N         -0.9670681627       -4.5255024477       -0.3841788280
 C         -1.8737954599       -4.9498130380        0.5659215725
 C         -2.3422555885       -4.2949661372        1.6960643770
 C         -3.2399747641       -4.9652497678        2.5045200421
 C         -3.6612128854       -6.2596220143        2.2072590230
 C         -3.1827923485       -6.9241336344        1.0959479044
 C         -2.2796568079       -6.2710560035        0.2673738836
 C         -1.5813899922       -6.6516689753       -0.9282751379
 C         -1.5749475676       -7.8013920579       -1.7070411280
 C         -0.7827619866       -7.8304650931       -2.8372101168
 C         -0.0134967802       -6.7274771914       -3.2019349859
 C         -0.0025319282       -5.5729137579       -2.4432307170
 C         -0.7800463288       -5.5455023766       -1.2942026252
 C         -1.0832423008       -2.1136642961       -0.3097272699
 C         -0.4213861767       -0.8953138831       -0.3158047321
 C         -0.8708942624        0.4627712210       -0.1958120649
 C         -2.1279738110        1.0338593310       -0.0720769427
 C         -2.2224669667        2.4155387591        0.0102155829
 N         -3.4778651199        3.0226395409        0.1581777343
 C         -3.9767208954        4.0530275362       -0.6124991531
 C         -3.4146028747        4.6890013707       -1.7104229661
 C         -4.1468155017        5.6882552964       -2.3221685188
 C         -5.4128687075        6.0470528075       -1.8645045904
 C         -5.9876781246        5.4015020755       -0.7882005898
 C         -5.2712859279        4.3934192600       -0.1564779222
 C         -5.5580640760        3.5196291054        0.9463012149
 C         -6.6461083985        3.3808513015        1.7980889843
 C         -6.5894222388        2.4263830458        2.7936890707
 C         -5.4610408638        1.6252295667        2.9546471939
 C         -4.3664503619        1.7444223323        2.1200344102
 C         -4.4260490906        2.6871692043        1.1036022650
 C         -1.0730565470        3.2132081727       -0.0576956172
 C          0.1823676221        2.6587729497       -0.2002309504
 C          0.2848572916        1.2753000130       -0.2469179626
 C          3.5577797944        0.4412821787       -1.4974229951
 C          4.8639049823        0.8754233031       -1.5726278573
 H          6.5283181903        1.0600743332        1.6922947824
 H          7.7814785654        1.6257898442        3.7322244037
 H          9.4624873633        3.4282279233        3.6942215279
 H          9.9122420882        4.6522041448        1.5985881487
 H          8.6580868059        4.0714947390       -0.4567654678
 H          4.8974121467        2.9839523143        1.0748333494
 H          2.5728660107        2.1988700348        1.2241571565
 H          2.8117243625       -1.9826256241       -0.5830438913
 H          1.6220619453       -4.1383437363       -0.5448679285
 H         -2.0087892244       -3.2983541522        1.9441819231
 H         -3.6214004234       -4.4757785340        3.3885290580
 H         -4.3658863780       -6.7485844834        2.8631763116
 H         -3.4977886224       -7.9323651208        0.8731716184
 H         -2.1823965377       -8.6506002310       -1.4326151761
 H         -0.7620358491       -8.7153362913       -3.4555870297
 H          0.5842209609       -6.7745226118       -4.1002919041
 H          0.5836302133       -4.7167530785       -2.7423731982
 H         -2.1583207774       -2.1607831411       -0.2348591651
 H         -3.0162111252        0.4219528662       -0.0557035988
 H         -2.4418110722        4.4060078076       -2.0839760692
 H         -3.7291750355        6.2004467974       -3.1763782815
 H         -5.9520704893        6.8351763915       -2.3685524075
 H         -6.9754393286        5.6678050193       -0.4435503296
 H         -7.5146464567        4.0112797393        1.6818191340
 H         -7.4255571453        2.3005493861        3.4651781008
 H         -5.4404474119        0.8963235957        3.7512723112
 H         -3.4897655557        1.1304342223        2.2632823681
 H         -1.1797555890        4.2849594549        0.0124210941
 H          1.0538273849        3.2906073842       -0.2759482290
 H          3.1670721131       -0.2465791322       -2.2318827963
 H          5.5159397757        0.5249150796       -2.3585149692
  84
  -133.154189116200       0.155969196928819      !
 O          7.3725332231        2.4404067416       -1.3469885589
 C          6.7986590530        2.2611904866       -0.2894585760
 C          7.4750631919        2.4773834987        1.0135269941
 C          8.4881622193        3.4316615678        1.0928220575
 C          9.1613645083        3.6384456553        2.2812922498
 C          8.8443174609        2.8795957254        3.3969267343
 C          7.8543096119        1.9127206760        3.3201758224
 C          7.1673290988        1.7119559721        2.1371754549
 C          5.3850774976        1.8051091158       -0.2442246842
 C          4.4963878508        2.2519336433        0.7321285291
 C          3.1827860786        1.8286318942        0.7256755361
 C          2.7359053265        0.9434000983       -0.2541611316
 N          1.4109404445        0.4966142604       -0.2480205498
 C          1.0049773487       -0.8204585069       -0.3431101144
 C          1.7633701015       -1.9805571593       -0.4162839088
 C          1.0991898919       -3.1882297152       -0.4781951734
 C         -0.2993724637       -3.2569255229       -0.4405692498
 N         -0.9314623619       -4.5070704316       -0.5040100127
 C         -0.6380794116       -5.6049843521        0.2791513696
 C          0.2786877930       -5.7349594938        1.3128757453
 C          0.3572358396       -6.9550296958        1.9564188437
 C         -0.4598756602       -8.0233419203        1.5929982276
 C         -1.3911713352       -7.8927420642        0.5824562356
 C         -1.4886375691       -6.6761343536       -0.0800104072
 C         -2.3324160157       -6.1905539778       -1.1355023259
 C         -3.3415206589       -6.7680796014       -1.8950024020
 C         -3.9535713180       -6.0068888036       -2.8703527789
 C         -3.5617685038       -4.6901662926       -3.1025698453
 C         -2.5609834243       -4.0935695762       -2.3601442456
 C         -1.9570589271       -4.8465234396       -1.3631803929
 C         -1.0604330598       -2.1014529813       -0.3365872927
 C         -0.4066267072       -0.8796829786       -0.2933540830
 C         -0.8678886512        0.4748915641       -0.1767899206
 C         -2.1319168241        1.0409576907       -0.1097624998
 C         -2.2355235199        2.4226789033       -0.0420551213
 N         -3.4991225850        3.0292928190        0.0079735985
 C         -4.5455073685        2.7835621207       -0.8581689935
 C         -4.6027476911        1.9422922284       -1.9603116907
 C         -5.7811788395        1.9011199666       -2.6802708991
 C         -6.8792997678        2.6810938504       -2.3239278145
 C         -6.8211581712        3.5364718981       -1.2421130963
 C         -5.6472355770        3.5954539164       -0.5024227355
 C         -5.2363957837        4.3626923943        0.6396191277
 C         -5.8713591928        5.3066919192        1.4359183654
 C         -5.1777095333        5.8504555774        2.4983588469
 C         -3.8722124443        5.4535797170        2.7801021065
 C         -3.2192371387        4.5166939531        2.0025233186
 C         -3.9029992256        3.9836056726        0.9190153368
 C         -1.0868690656        3.2246538858       -0.0448976665
 C          0.1771518328        2.6741645350       -0.0933272758
 C          0.2857535941        1.2913894070       -0.1472871642
 C          3.6176716933        0.5063513562       -1.2413636672
 C          4.9251122245        0.9439548431       -1.2389406806
 H          8.7272063105        4.0058527419        0.2100170943
 H          9.9386757988        4.3857382936        2.3374112896
 H          9.3744629460        3.0354953821        4.3246838027
 H          7.6190774592        1.3103288855        4.1851479009
 H          6.4100119718        0.9436230330        2.0750656932
 H          4.8328377063        2.9445166246        1.4895221454
 H          2.4988432390        2.1643603983        1.4907261156
 H          2.8419874258       -1.9473741261       -0.4240841710
 H          1.6621180921       -4.1048520919       -0.5664088129
 H          0.9033103145       -4.9073887927        1.6144063066
 H          1.0659093500       -7.0823071083        2.7614650946
 H         -0.3655139114       -8.9619531521        2.1182570846
 H         -2.0354578988       -8.7154705279        0.3116089110
 H         -3.6349746341       -7.7928851314       -1.7246684832
 H         -4.7420791617       -6.4359775979       -3.4703458639
 H         -4.0489814592       -4.1240561517       -3.8827030947
 H         -2.2524617185       -3.0781013625       -2.5590742113
 H         -2.1359188440       -2.1579182135       -0.2745719407
 H         -3.0165540226        0.4236870279       -0.1068806970
 H         -3.7512280530        1.3475105728       -2.2553267528
 H         -5.8514534775        1.2521662808       -3.5407468208
 H         -7.7834035120        2.6183698927       -2.9108983887
 H         -7.6667182390        4.1521599004       -0.9749678504
 H         -6.8881379622        5.6029646470        1.2266370066
 H         -5.6523201797        6.5877568506        3.1284346003
 H         -3.3603672357        5.8853888230        3.6275093826
 H         -2.2133478981        4.2027193098        2.2384436810
 H         -1.2034466008        4.2975909073       -0.0269998498
 H          1.0506009495        3.3076153775       -0.1146121737
 H          3.2635057730       -0.1550321571       -2.0175879417
 H          5.6131040617        0.6244685078       -2.0072440458
  84
  -133.154090735800       0.140548538713166      !
 O          7.3687669320        2.2694803079       -1.5972527134
 C          6.7982056764        2.2063697321       -0.5247526742
 C          7.4704681895        2.5864914699        0.7427577819
 C          7.2127673407        1.9164843618        1.9376063221
 C          7.8878989275        2.2732938530        3.0901893548
 C          8.8146582047        3.3035817632        3.0651731621
 C          9.0826380962        3.9673197704        1.8785644704
 C          8.4231644330        3.6032300780        0.7201820718
 C          5.3901460678        1.7438588228       -0.4226245347
 C          4.5132488654        2.2536391915        0.5335072760
 C          3.2014853148        1.8270259118        0.5749128204
 C          2.7426831839        0.8787432127       -0.3382682944
 N          1.4158507057        0.4412247100       -0.2919606403
 C          0.9989208529       -0.8756557242       -0.3098487218
 C          1.7487505698       -2.0436332851       -0.3100055236
 C          1.0754239456       -3.2476255547       -0.2950317397
 C         -0.3236304207       -3.3029264489       -0.2557274866
 N         -0.9633495368       -4.5510512212       -0.2397304592
 C         -0.6843623592       -5.5924725099        0.6215062337
 C          0.2131148988       -5.6494339433        1.6784174230
 C          0.2772946359       -6.8210000066        2.4079005122
 C         -0.5343480217       -7.9121494565        2.1049630394
 C         -1.4451350683       -7.8535699323        1.0692857796
 C         -1.5286526937       -6.6864244255        0.3213789076
 C         -2.3522167025       -6.2752393557       -0.7807104290
 C         -3.3464743739       -6.9043975005       -1.5184322191
 C         -3.9407844932       -6.2113945658       -2.5538337965
 C         -3.5468829248       -4.9118608638       -2.8657045652
 C         -2.5603886837       -4.2647386529       -2.1467103322
 C         -1.9731692124       -4.9490897596       -1.0921205486
 C         -1.0763078137       -2.1378282113       -0.2260037471
 C         -0.4131261405       -0.9205440683       -0.2563540759
 C         -0.8632599403        0.4423849682       -0.2141483582
 C         -2.1224222469        1.0223841274       -0.1881548603
 C         -2.2138151673        2.4066855410       -0.1702662314
 N         -3.4712747607        3.0259660645       -0.1242906020
 C         -3.9111967944        4.0296483186       -0.9633209816
 C         -3.2809614669        4.6095771382       -2.0552866427
 C         -3.9631504955        5.5914529764       -2.7476057869
 C         -5.2457830369        5.9875596865       -2.3745502143
 C         -5.8876439226        5.3973446184       -1.3045246782
 C         -5.2226308512        4.4072902369       -0.5931247818
 C         -5.5823076390        3.5855843243        0.5280979110
 C         -6.7166626359        3.4988500501        1.3244932085
 C         -6.7294329254        2.5867123698        2.3605417098
 C         -5.6248930479        1.7766656534        2.6155122841
 C         -4.4850393330        1.8447219939        1.8376595420
 C         -4.4740736893        2.7447586718        0.7815586268
 C         -1.0581478443        3.1976909495       -0.2022652350
 C          0.2002960753        2.6342179997       -0.2471085159
 C          0.2972048392        1.2497650084       -0.2321761171
 C          3.6133712361        0.3746887406       -1.3035014681
 C          4.9196947420        0.8126461856       -1.3474704331
 H          6.5034539625        1.1014514508        1.9551930069
 H          7.6912464473        1.7456819396        4.0116911730
 H          9.3333056420        3.5836496748        3.9698889736
 H          9.8100341173        4.7649443139        1.8561209315
 H          8.6254142967        4.1026942973       -0.2156943251
 H          4.8566282926        2.9973301258        1.2373235193
 H          2.5280092866        2.2114543402        1.3261301468
 H          2.8275914366       -2.0190673669       -0.3187491203
 H          1.6309941167       -4.1726193441       -0.3214958914
 H          0.8334734285       -4.8026204837        1.9318071184
 H          0.9693041224       -6.8909392954        3.2342007632
 H         -0.4522349935       -8.8110179125        2.6975994045
 H         -2.0846759046       -8.6936396636        0.8440890727
 H         -3.6417985806       -7.9163986156       -1.2858519437
 H         -4.7170422696       -6.6817230176       -3.1387733153
 H         -4.0212518879       -4.3996392348       -3.6897775423
 H         -2.2504674892       -3.2632953705       -2.4057466514
 H         -2.1524021064       -2.1827155521       -0.1638098147
 H         -3.0136463753        0.4146275229       -0.1982728336
 H         -2.2943359588        4.2971273988       -2.3633341604
 H         -3.4926839858        6.0598942772       -3.5993936450
 H         -5.7440796389        6.7610232599       -2.9395854858
 H         -6.8875240902        5.6929148156       -1.0246198359
 H         -7.5667412557        4.1368443859        1.1355583721
 H         -7.6024664578        2.5013927342        2.9901533580
 H         -5.6590383180        1.0819179920        3.4418393835
 H         -3.6279817404        1.2243909891        2.0536669059
 H         -1.1633902348        4.2717188493       -0.1832999031
 H          1.0787531608        3.2590064968       -0.2959541053
 H          3.2505799395       -0.3381541353       -2.0285171091
 H          5.5991760154        0.4420600556       -2.1002534794
  84
  -133.153917725200       0.117035110079410      !
 O          7.3225086563        2.6281654014       -1.4981721837
 C          6.7704045323        2.3158396881       -0.4609361274
 C          7.4866510738        2.3011968415        0.8384317436
 C          7.1445482758        1.4081694522        1.8531577488
 C          7.8644012914        1.3927493240        3.0332857325
 C          8.9226826363        2.2687303471        3.2163956826
 C          9.2741815807        3.1530488665        2.2086465512
 C          8.5672895873        3.1626151039        1.0217092688
 C          5.3412953502        1.9060613793       -0.4319793483
 C          4.4900507680        2.2890538417        0.6026893777
 C          3.1686924100        1.8903032198        0.6025530277
 C          2.6807705850        1.0871835716       -0.4266127811
 N          1.3592486014        0.6288540555       -0.3991675922
 C          0.9740284784       -0.6908556114       -0.5312851483
 C          1.7525206261       -1.8284169715       -0.6935826898
 C          1.1134021590       -3.0493152959       -0.7466979257
 C         -0.2803408326       -3.1505300451       -0.6484563020
 N         -0.8806118274       -4.4172399295       -0.6984323261
 C         -1.7609220865       -4.9274216169        0.2341873897
 C         -2.2448483200       -4.3523798031        1.4006394531
 C         -3.1063650110       -5.1006558833        2.1794937005
 C         -3.4774592712       -6.3938592807        1.8174219476
 C         -2.9828605431       -6.9791164772        0.6692075667
 C         -2.1146556169       -6.2471350149       -0.1302114422
 C         -1.4091421233       -6.5372558983       -1.3467700165
 C         -1.3574034627       -7.6459799246       -2.1813752507
 C         -0.5684230562       -7.5863814019       -3.3125834596
 C          0.1519081140       -6.4351245274       -3.6242114863
 C          0.1166458097       -5.3196204799       -2.8099277651
 C         -0.6563124089       -5.3817337386       -1.6590897949
 C         -1.0614711670       -2.0169930468       -0.4772878730
 C         -0.4306564422       -0.7839073254       -0.4046066411
 C         -0.9099543623        0.5536461096       -0.1976287663
 C         -2.1773700328        1.0887457734       -0.0248968471
 C         -2.3016926978        2.4624373314        0.1244018101
 N         -3.5717624599        3.0363850581        0.2831187859
 C         -4.6653692089        2.8065326266       -0.5274275741
 C         -4.7716110490        2.0255933922       -1.6696235647
 C         -5.9930570146        1.9877032985       -2.3141817342
 C         -7.0865040959        2.7126314037       -1.8450545048
 C         -6.9809746939        3.5091341409       -0.7226316329
 C         -5.7631328853        3.5637246378       -0.0573520767
 C         -5.2997569622        4.2796515723        1.0977529189
 C         -5.9075491890        5.1588032361        1.9843443377
 C         -5.1617875349        5.6651442933        3.0298045944
 C         -3.8303678266        5.2941039958        3.2054697323
 C         -3.2037344967        4.4212958409        2.3368863661
 C         -3.9412779544        3.9266806646        1.2705146065
 C         -1.1700238235        3.2879520951        0.0987927045
 C          0.0986776783        2.7677581099       -0.0539337283
 C          0.2282263503        1.3926564464       -0.1916799283
 C          3.5217995009        0.7255359454       -1.4772916290
 C          4.8358149382        1.1442367849       -1.4831660507
 H          6.3325674083        0.7105215087        1.7063439384
 H          7.6004826150        0.6932581392        3.8126680943
 H          9.4779510954        2.2563776478        4.1425392502
 H         10.1039957819        3.8298139854        2.3471609022
 H          8.8320721747        3.8369836838        0.2208539803
 H          4.8642327186        2.9082004368        1.4047697192
 H          2.5131217912        2.1749456270        1.4119463151
 H          2.8284925025       -1.7692326944       -0.7528529277
 H          1.6933443515       -3.9541513864       -0.8471068798
 H         -1.9495250942       -3.3574849719        1.6989272276
 H         -3.4979931047       -4.6745073416        3.0914040632
 H         -4.1552124160       -6.9450536185        2.4520064067
 H         -3.2583363452       -7.9866038123        0.3963643647
 H         -1.9270540018       -8.5326961633       -1.9476905177
 H         -0.5120736701       -8.4384730779       -3.9733341765
 H          0.7488811925       -6.4132391682       -4.5239998510
 H          0.6652897081       -4.4259019444       -3.0674832808
 H         -2.1348018788       -2.0965729172       -0.4041548252
 H         -3.0490815309        0.4537296618       -0.0018775785
 H         -3.9257192566        1.4739382283       -2.0517892196
 H         -6.1015316853        1.3847074053       -3.2036497907
 H         -8.0250853472        2.6537901206       -2.3755889438
 H         -7.8236074591        4.0829405780       -0.3675071654
 H         -6.9434750212        5.4343490145        1.8564069459
 H         -5.6145079346        6.3522052811        3.7289805424
 H         -3.2766569762        5.6950971828        4.0416169632
 H         -2.1765088081        4.1263044498        2.4911767290
 H         -1.3046939464        4.3555206283        0.1840237688
 H          0.9590984927        3.4184481615       -0.0877720558
 H          3.1326135902        0.1317627791       -2.2906097212
 H          5.4938435677        0.8785857339       -2.2968214766
