  87
       -139.21703724
 C        -13.1209807727       -1.6605879568        3.0054557991
 C        -11.8374781738       -1.2829694252        3.3936404924
 C        -10.8752419389       -0.9354258577        2.4648636599
 C        -11.2291617772       -0.9649114236        1.1236371631
 C        -12.5214644989       -1.3708414971        0.7191082294
 C        -13.4715163968       -1.7155058504        1.6713626415
 C        -12.5299178334       -1.3358317369       -0.7166140676
 C        -13.5009094381       -1.6039455776       -1.6723772836
 C        -13.1786361020       -1.4452508564       -3.0052909113
 C        -11.9120358892       -1.0101320123       -3.3887965780
 C        -10.9294132638       -0.7369501406       -2.4564123388
 C        -11.2396950291       -0.9186641961       -1.1163577645
 N        -10.4640047784       -0.6962632503        0.0050766176
 C         -9.1303084555       -0.2716233457        0.0080277128
 C         -8.1823783713       -0.9235689599       -0.7767044849
 C         -6.8686113106       -0.5016117152       -0.7714277598
 C         -6.4662251688        0.5785808322        0.0123763615
 C         -5.0687376316        1.0289378792        0.0107378043
 C         -4.0231396665        0.1057291589        0.0098190758
 C         -2.7096214712        0.5257220637        0.0077770913
 C         -2.4132881486        1.8881329497       -0.0006486507
 C         -1.0486628897        2.3534051475       -0.0131332080
 N         -0.6494845003        3.5926309736       -0.0517886470
 N          0.6870843489        3.5820252775       -0.0578775068
 C          1.0670537826        2.3366466233       -0.0214048441
 C          2.4245611971        1.8509120916       -0.0147852332
 C          2.7031138079        0.4878329522        0.0769305504
 C          4.0109728068        0.0499277316        0.0819722862
 C          5.0675793514        0.9552355835       -0.0132354571
 C          6.4597617550        0.4900811503       -0.0157706260
 C          6.8785042951       -0.5241422803        0.8437887177
 C          8.1931375589       -0.9435728642        0.8584055388
 C          9.1212708338       -0.3703848147       -0.0077278518
 N         10.4557039378       -0.7900617447        0.0025420373
 C         11.5606496155        0.0386177140        0.0576922718
 C         11.6262273403        1.4201258379        0.1688905577
 C         12.8769995775        2.0039993800        0.2326344962
 C         14.0403385382        1.2386564081        0.1971006635
 C         13.9811464034       -0.1380186500        0.1145992283
 C         12.7352480391       -0.7476700184        0.0492914026
 C         12.3094795202       -2.1176025423       -0.0183012634
 C         12.9906657976       -3.3263534424       -0.0710546966
 C         12.2597197315       -4.4943587435       -0.1557842848
 C         10.8679430422       -4.4653804524       -0.2050155794
 C         10.1680376203       -3.2749000129       -0.1541430751
 C         10.8960634333       -2.0991502015       -0.0418215857
 C          8.7070582276        0.6308647506       -0.8833950010
 C          7.3963229649        1.0605183536       -0.8767555726
 C          4.7778301637        2.3180341891       -0.1058937192
 C          3.4752817946        2.7654245328       -0.1027193876
 O          0.0026212639        1.4984332168        0.0090515163
 C         -3.4523717694        2.8200184244       -0.0020752692
 C         -4.7613145561        2.3909647837        0.0071025289
 C         -7.4220458817        1.2248071116        0.7947800186
 C         -8.7372657711        0.8076180587        0.7956750964
 H        -13.8453283740       -1.9226611140        3.7622128657
 H        -11.5870815807       -1.2657109869        4.4441254858
 H         -9.8780001933       -0.6624874963        2.7756876880
 H        -14.4609940120       -2.0237302006        1.3691520284
 H        -14.4873612959       -1.9252771765       -1.3737125296
 H        -13.9182743410       -1.6507886906       -3.7647709093
 H        -11.6940405613       -0.8790670877       -4.4385059680
 H         -9.9571554861       -0.3819666795       -2.7636970181
 H         -8.4804154231       -1.7702898215       -1.3769052702
 H         -6.1460129824       -1.0057228806       -1.3959961864
 H         -4.2461077936       -0.9508508156        0.0321041745
 H         -1.9058407622       -0.1953919443        0.0145645602
 H          1.8901084181       -0.2200519179        0.1413550849
 H          4.2203239835       -1.0082101268        0.1378717830
 H          6.1727742389       -0.9631957563        1.5334712065
 H          8.5140526748       -1.7039615429        1.5545385044
 H         10.7315338620        2.0223286480        0.2168724256
 H         12.9537552587        3.0781652066        0.3153904045
 H         14.9990395112        1.7332150516        0.2452308275
 H         14.8816706861       -0.7333065130        0.1058307784
 H         14.0698559253       -3.3464531164       -0.0507385660
 H         12.7695606198       -5.4454619974       -0.1944644087
 H         10.3231173947       -5.3942588631       -0.2889754816
 H          9.0901836331       -3.2637687644       -0.2142042513
 H          9.4163908409        1.0575416821       -1.5765857792
 H          7.0840737841        1.8273961712       -1.5700568464
 H          5.5880960619        3.0297963160       -0.1586460208
 H          3.2413178743        3.8161703894       -0.1652421890
 H         -3.2047380044        3.8694259991       -0.0133104990
 H         -5.5617559599        3.1154862403       -0.0108103702
 H         -7.1266927236        2.0541122233        1.4202322712
 H         -9.4723270970        1.3244270934        1.3943407007
