  87
       -139.13406137
 C        -14.0082296171        1.3225765036        0.8532009377
 C        -12.8279273253        2.0608404857        0.8926147909
 C        -11.6007444448        1.4740340293        0.6466521168
 C        -11.5791104955        0.1190791017        0.3453534228
 C        -12.7701989430       -0.6436885197        0.3327002214
 C        -13.9902098067       -0.0330257879        0.5836913380
 C        -12.3832972675       -1.9993413960        0.0506153454
 C        -13.0938331562       -3.1802560702       -0.1060978394
 C        -12.3978378811       -4.3358280597       -0.4076937006
 C        -11.0148403565       -4.3171404966       -0.5710873374
 C        -10.2857300967       -3.1523882926       -0.4207131852
 C        -10.9754783044       -1.9944695253       -0.0882040475
 N        -10.5027734259       -0.7089021202        0.0903352576
 C         -9.1668374055       -0.3106222819        0.0283985989
 C         -8.1781621043       -1.0220019141        0.7143875344
 C         -6.8654247108       -0.6222969701        0.6553473891
 C         -6.4722179677        0.5096598402       -0.0835259662
 C         -5.0952361904        0.9367821712       -0.1351402021
 C         -4.0328837860        0.0175994897        0.0240696092
 C         -2.7286674339        0.4149962540       -0.0343362658
 C         -2.3999616498        1.7768883172       -0.2419277462
 C         -1.0685907047        2.2127848839       -0.3046559188
 N         -0.6498227381        3.4657729087       -0.5011038981
 N          0.6475098781        3.4678554494       -0.5039375676
 C          1.0718541838        2.2172053431       -0.3083757942
 C          2.4058071095        1.7858471227       -0.2466669271
 C          2.7364405150        0.4286862928       -0.0165566443
 C          4.0419277552        0.0346740043        0.0458625637
 C          5.1000733963        0.9524905554       -0.1368185115
 C          6.4787608153        0.5264152244       -0.0803077498
 C          6.8755368112       -0.5684209328        0.7086266461
 C          8.1877771646       -0.9699556267        0.7710209825
 C          9.1689055718       -0.2995395585        0.0352799472
 N         10.5025646329       -0.7064665278        0.0963201234
 C         11.5917963117        0.1208252179        0.2911860575
 C         11.6333364246        1.4897208990        0.5171656603
 C         12.8706893096        2.0745831996        0.7104872678
 C         14.0417509386        1.3210896451        0.6930327577
 C         14.0041905488       -0.0471250456        0.5001244214
 C         12.7737507203       -0.6561729313        0.3025960063
 C         12.3674980128       -2.0198141419        0.0972773628
 C         13.0615697809       -3.2162698490       -0.0072480468
 C         12.3478352068       -4.3768795698       -0.2405185800
 C         10.9633362250       -4.3493953157       -0.3893177276
 C         10.2505651586       -3.1694686351       -0.2893345871
 C         10.9582833125       -2.0050444495       -0.0235806665
 C          8.7926398460        0.7858301478       -0.7606969348
 C          7.4806785795        1.1901278496       -0.8112105217
 C          4.7597233325        2.3037692183       -0.3767197352
 C          3.4602526364        2.7159206959       -0.4201947257
 O          0.0037565223        1.3662241540       -0.1712830216
 C         -3.4575597607        2.7083619065       -0.3922634411
 C         -4.7555728794        2.2941799303       -0.3476220307
 C         -7.4825015916        1.2105766168       -0.7694283263
 C         -8.7952230162        0.8110045442       -0.7190811659
 H        -14.9475618638        1.8180115575        1.0480066934
 H        -12.8711984589        3.1144276902        1.1252478809
 H        -10.6903598356        2.0508519014        0.7027887794
 H        -14.9029968992       -0.6091297693        0.5730964604
 H        -14.1679414484       -3.1910086271        0.0006865900
 H        -12.9316240346       -5.2662221043       -0.5309194688
 H        -10.5006747727       -5.2318257008       -0.8261982382
 H         -9.2171992325       -3.1445973640       -0.5721212838
 H         -8.4616440135       -1.8687348567        1.3220282176
 H         -6.1297380146       -1.1640596523        1.2294578653
 H         -4.2576456075       -1.0300622529        0.1594439648
 H         -1.9279905786       -0.3017389041        0.0706115793
 H          1.9370653858       -0.2868742977        0.1046330401
 H          4.2710315460       -1.0092650458        0.1999676266
 H          6.1438897916       -1.0758464957        1.3180336572
 H          8.4771373447       -1.7851867989        1.4175704057
 H         10.7302327277        2.0787488858        0.5583344706
 H         12.9291332828        3.1386585001        0.8849111181
 H         14.9897429330        1.8148076528        0.8465320545
 H         14.9105901245       -0.6332701060        0.5066214550
 H         14.1366579002       -3.2355324578        0.0881477607
 H         12.8686617110       -5.3190385894       -0.3221852194
 H         10.4352361612       -5.2693081262       -0.5925538836
 H          9.1804990279       -3.1555626719       -0.4270907642
 H          9.5382195943        1.2820494440       -1.3640482119
 H          7.2088184562        2.0050707718       -1.4641034346
 H          5.5487640716        3.0323755431       -0.4871555035
 H          3.2007602053        3.7502515090       -0.5800163558
 H         -3.2003107862        3.7453517304       -0.5380740616
 H         -5.5441804686        3.0252616622       -0.4420315974
 H         -7.2176958029        2.0546220341       -1.3871363890
 H         -9.5468073631        1.3408062765       -1.2856742478
