87
 energy: -139.135674591276 gnorm: 0.000071916554 xtb: 6.7.1 (edcfbbe)
C          -13.26139170202908       -1.26249560992831        3.00906965558000
C          -11.99346544983831       -0.83749191087046        3.39837309099892
C          -10.99253624952426       -0.61060518134675        2.47264706395314
C          -11.29288820765961       -0.81091260009616        1.13240214030770
C          -12.56992041013639       -1.26727416509295        0.73057810007802
C          -13.55847228275467       -1.48860565153028        1.67840785140495
C          -12.51778112879571       -1.41891561941825       -0.69811036249283
C          -13.44842486706448       -1.80549948736454       -1.65157988049776
C          -13.06826132662945       -1.81713300249984       -2.98025840168792
C          -11.78489319384922       -1.43376084302224       -3.36212387636604
C          -10.84083241636516       -1.04459309295521       -2.43068828463611
C          -11.20876680176463       -1.05631529342245       -1.09235917145483
N          -10.48064963987268       -0.68991118806146        0.02229338327691
C           -9.14750784749312       -0.27036359625760        0.02556378010890
C           -8.17046481699865       -1.01555789366333       -0.63765045968523
C           -6.85826581965187       -0.60521850485316       -0.62694779486113
C           -6.46610825900114        0.57399725808466        0.02775497847797
C           -5.08586555157640        1.00968572065378        0.02544461467531
C           -4.02703108158783        0.07729716958447       -0.02019251973650
C           -2.72248081822460        0.47987126536910       -0.01621871102067
C           -2.39588746113912        1.85749394176944        0.00618826251969
C           -1.06292409840531        2.29320682493015       -0.01177197958660
N           -0.63477343039690        3.55940288684580       -0.03021746801126
N            0.65999870171241        3.55470648965571       -0.05456422498187
C            1.07889948072535        2.28370891500254       -0.04743935436140
C            2.40599776695128        1.83774707198117       -0.05684956380370
C            2.72325015625819        0.45661064320915       -0.00720166769092
C            4.02308620325759        0.04452613666714        0.00658242582564
C            5.09247968855613        0.96766241702309       -0.05596055012113
C            6.46522176598621        0.52271620771033       -0.04707798637261
C            6.84563897994294       -0.66504687410250        0.60419183073145
C            8.15306308817546       -1.08563559751198        0.62388365740249
C            9.14581532663136       -0.34286649144846       -0.02166189420593
N           10.47386212429656       -0.77073171366024       -0.00656335069116
C           11.57360662210850        0.01519020030500        0.28084321033156
C           11.63317310735531        1.34802761897174        0.66417651052816
C           12.87806310315221        1.89024431897112        0.92295439787294
C           14.03937806342289        1.12898086295473        0.81736284353129
C           13.98395612822654       -0.20688658583572        0.46728573880502
C           12.74557445921058       -0.77261089342568        0.20159359553978
C           12.32229708149267       -2.09934877501903       -0.15532031022246
C           13.00230246224759       -3.28487084862832       -0.39261634076874
C           12.27511169623153       -4.40405287081316       -0.75152064395405
C           10.89114738032354       -4.34330450331506       -0.89385945431101
C           10.19230841209131       -3.17307835431738       -0.66386136821973
C           10.91343636165504       -2.05366440305909       -0.27158772655658
C            8.78571989378051        0.83592264528409       -0.68118576300538
C            7.47907600376925        1.25956631007489       -0.68638694402200
C            4.76616610128265        2.34322079488036       -0.12431182695721
C            3.47244693421509        2.77175717373920       -0.11189285608215
O            0.00369072990347        1.42868619314870       -0.02161446907684
C           -3.45273250962120        2.80025992817653        0.04333709344406
C           -4.75126503999934        2.38179506774936        0.06574138072535
C           -7.46379410384748        1.31505468130484        0.68223344516558
C           -8.77441104759298        0.89929475529369        0.69082420333450
H          -14.01727589381823       -1.42674698235429        3.76232649852515
H          -11.78588653841068       -0.68627944085692        4.44722404093061
H          -10.00709872856426       -0.30101268828059        2.78572851044596
H          -14.53578762942433       -1.83566646666240        1.37910045056109
H          -14.44894899093903       -2.08479652749321       -1.35811625574025
H          -13.77684308393583       -2.11671650470678       -3.73782113969029
H          -11.52263181280689       -1.43573414952093       -4.40962801477811
H           -9.85540342006949       -0.72927446724777       -2.73804214563898
H           -8.45168343667816       -1.92893119937107       -1.14086893547671
H           -6.12156817374144       -1.18959273569183       -1.15675419369350
H           -4.25451841113341       -0.97848711075225       -0.01619112856798
H           -1.92087711488302       -0.24320433633415       -0.02882964662001
H            1.91561174411103       -0.25934940974480        0.01948315585730
H            4.24161509255469       -1.01294690047656        0.02441220754804
H            6.10486942148606       -1.23522699113634        1.14333443008023
H            8.42942264373574       -1.97580406347372        1.16938349961150
H           10.73838715858066        1.94143754791036        0.77251642239928
H           12.95050296140430        2.92632962948776        1.21830797772479
H           14.99352507812266        1.58982618223796        1.02443683509276
H           14.88212489795289       -0.80239824872310        0.40583188575998
H           14.07713380245119       -3.32663947114527       -0.30262601162559
H           12.78451750750925       -5.33779936218113       -0.93672178304205
H           10.35167159867737       -5.22881361461040       -1.19530732834902
H            9.12262299519990       -3.13196394141343       -0.80047372240260
H            9.53983861575892        1.39352923453451       -1.21659718384403
H            7.22036536847860        2.15249465176230       -1.23423172754683
H            5.56352974807684        3.07088335270557       -0.14378044452439
H            3.22411039636811        3.82070443292772       -0.14012023726854
H           -3.19672594402373        3.84772997414913        0.04941719931317
H           -5.54343584083868        3.11544433088911        0.07086468239076
H           -7.19512606074628        2.21611986140663        1.21200922796330
H           -9.52892496747287        1.48665930362479        1.19301676578806
