87
 energy: -139.135990088472 gnorm: 0.000075644718 xtb: 6.7.1 (edcfbbe)
C          -14.03137047430709        1.29143398380694        0.83824832913865
C          -12.85968013222879        2.04289986639368        0.88251498270600
C          -11.62463068656405        1.46901097538924        0.64604914158973
C          -11.58626373411144        0.11347492834506        0.34975455639121
C          -12.76859565043397       -0.66252508607903        0.33148103086613
C          -13.99678831803766       -0.06450488407680        0.57291191002029
C          -12.36512225340094       -2.01443166412787        0.05496445235790
C          -13.06135259274599       -3.20360666811167       -0.10454656606113
C          -12.35067872207220       -4.35165484395425       -0.39969374144301
C          -10.96697563829985       -4.31795189137113       -0.55365931888193
C          -10.25194548884343       -3.14502826214382       -0.40010864995103
C          -10.95681667477840       -1.99443472189306       -0.07453312704985
N          -10.49932304750413       -0.70332228090892        0.10464815076588
C           -9.16637056129900       -0.29346948300431        0.04570211194856
C           -8.17662134182666       -0.99249359113103        0.74180577615045
C           -6.86495278924199       -0.58872119089269        0.67943254135653
C           -6.47580126182544        0.53430002823157       -0.07350107117314
C           -5.09756741856408        0.95998798393425       -0.13503918253243
C           -4.03678122656202        0.03932322246224        0.02656787899081
C           -2.73234387040355        0.43275289786859       -0.04206231427344
C           -2.40118109922807        1.79281015074873       -0.26279573434884
C           -1.06980346681348        2.22295738727970       -0.33324314009378
N           -0.64556924954442        3.47361465494652       -0.54559966166516
N            0.64952833129868        3.47225373008574       -0.54758708932131
C            1.07198549636248        2.22151876527145       -0.33564741374886
C            2.40367533710110        1.78943572458901       -0.26545214039591
C            2.73234733308455        0.43181857897941       -0.03066031876047
C            4.03683246551851        0.03688472628062        0.04005221329106
C            5.09717853873420        0.95377651654085       -0.13608352805207
C            6.47611326641831        0.52627906691343       -0.07374174395638
C            6.86839224916417       -0.57389871193520        0.70911863766799
C            8.18035331754700       -0.97770198706827        0.77347380539293
C            9.16477475771997       -0.30264066919128        0.04728919288092
N           10.49786963432697       -0.71248665902013        0.10761364927056
C           11.58796020883457        0.11080095921277        0.31436885131151
C           11.63093567240680        1.47563194553473        0.56367509180743
C           12.86899177936905        2.05563728770491        0.76716046971466
C           14.03943951323246        1.30156850300683        0.73652707861317
C           14.00060009387766       -0.06264036592518        0.51872119116356
C           12.76928906628618       -0.66687199248986        0.31077588652952
C           12.36187328048990       -2.02684466768067        0.08451859447764
C           13.05567445096541       -3.22155774693108       -0.04070563064367
C           12.34140965956011       -4.37820427730192       -0.28976777672015
C           10.95637944809219       -4.34807667767717       -0.43205169376488
C           10.24375405886163       -3.16979561919830       -0.31198710429057
C           10.95243228128242       -2.00951762750715       -0.03225314687024
C            8.79327467507161        0.78980276645983       -0.74068405237220
C            7.48145341829581        1.19492158172151       -0.79460329799741
C            4.75925049713635        2.30560770280801       -0.37739912313616
C            3.46082745034435        2.71872540377146       -0.43201632051895
O            0.00088657262071        1.37465441284027       -0.18999998554172
C           -3.45804103113753        2.72575377265711       -0.41596978395820
C           -4.75653550151333        2.31470966694322       -0.36112549582323
C           -7.48731601149569        1.22612776950111       -0.76487949542949
C           -8.79932457721001        0.82272617285052       -0.71084975619683
H          -14.97729729271409        1.77694438787885        1.02585273215257
H          -12.91619987358443        3.09664238744101        1.11144667218906
H          -10.72089409938215        2.05591299925491        0.70507769512204
H          -14.90313980078512       -0.65056173287708        0.55836292715654
H          -14.13593791312812       -3.22620038026270       -0.00509705840989
H          -12.87312445183277       -5.28815861523988       -0.52506452513769
H          -10.44091937046978       -5.22726949745477       -0.80356216314564
H           -9.18254665242460       -3.12549727896261       -0.54405007208796
H           -8.45801110009238       -1.83353232868976        1.35823026234538
H           -6.12749474393459       -1.12116288934611        1.25994962738260
H           -4.26398625305128       -1.00682062840248        0.16815658259292
H           -1.93241567042938       -0.28460095509191        0.06381223888841
H            1.93147820635853       -0.28280606999862        0.08590319890925
H            4.26366887832429       -1.00755977183735        0.19475871915359
H            6.13391431017210       -1.08703215554119        1.31058751312789
H            8.46555234689885       -1.79967076210284        1.41337858541744
H           10.72862077612955        2.06567309523420        0.61214267109277
H           12.92892561544555        3.11659728927948        0.95888500644322
H           14.98778216599446        1.79202042012914        0.89714255535335
H           14.90607799263786       -0.65021619539463        0.51494039313575
H           14.13112044239775       -3.24183769472913        0.04952649160096
H           12.86186105479864       -5.31906630997201       -0.38783344217958
H           10.42725662825154       -5.26477986354837       -0.64592283590630
H            9.17309220592853       -3.15419844727639       -0.44670692756538
H            9.54244891409699        1.29267598290170       -1.33415967321661
H            7.21413120540409        2.01625953113985       -1.44130705478065
H            5.54919503409632        3.03400923717694       -0.48205624017013
H            3.20358616786024        3.75266938438626       -0.59794354346364
H           -3.19933313200697        3.76100605863506       -0.57112282764224
H           -5.54465620521203        3.04658061080896       -0.45388163291203
H           -7.22490419533567        2.06570133913110       -1.38967314933598
H           -9.55281946240972        1.34538113444215       -1.28137500403449
