  83
       -128.50407012
 C          6.5601344549        1.0417014072       -1.2113767031
 C          5.6178284913        1.1055283519        0.0058709472
 C          6.4338837373        1.2479805498        1.3048769826
 C          4.7274575982        2.3230205459       -0.1359697115
 C          5.2970084021        3.5862341366       -0.2191284264
 C          4.5286209692        4.7297359784       -0.3374522933
 C          3.1475508972        4.6236283006       -0.3712286042
 C          2.5540211270        3.3839587699       -0.2898816919
 C          3.3302194570        2.2235363212       -0.1756715330
 N          2.7060899140        0.9952826508       -0.1010561282
 C          1.2815712216        0.9434631165       -0.0660911024
 C          0.5484345048        0.9086496103       -1.2412107391
 C         -0.8324186816        0.8462631476       -1.1907614690
 C         -1.5015307168        0.8169335375        0.0265311070
 C         -3.0263482608        0.7176425254        0.1109736165
 C         -3.6491887640        2.0064177148        0.6118327765
 C         -2.9284289873        3.1788905441        0.7901628256
 C         -3.5597604943        4.3318081934        1.2277715481
 C         -4.9180569774        4.3293068707        1.4878179154
 C         -5.6476441637        3.1655243188        1.3024376178
 C         -5.0188736484        2.0161403247        0.8659918651
 C         -3.5900535217        0.3828876420       -1.2555831776
 C         -3.9915838290        1.3839564714       -2.1238221930
 C         -4.3861011408        1.0933827802       -3.4217003858
 C         -4.3597834864       -0.2212315427       -3.8728993190
 C         -3.9645019434       -1.2330372629       -3.0323135494
 C         -3.5988984911       -0.9504726845       -1.7024422669
 C         -3.2886664835       -2.0569588599       -0.8255463934
 O         -3.1167712817       -3.2287337834       -1.2558425313
 C         -3.2928729833       -1.7501154559        0.5867799912
 C         -3.3460826622       -2.8186229122        1.5035636204
 C         -3.4866403489       -2.5738508576        2.8470051421
 C         -3.5757981684       -1.2676589717        3.3139765733
 C         -3.4796261193       -0.2094821172        2.4218524519
 C         -3.3158668467       -0.4281466959        1.0646739325
 C         -0.7501788477        0.8616152106        1.1974669481
 C          0.6272520320        0.9298025875        1.1580868012
 C          3.4194543643       -0.1774550987        0.0029910326
 C          4.8218266853       -0.1835207181        0.0688349560
 C          5.5053572655       -1.3925420231        0.1895664435
 C          4.8665770532       -2.6143439235        0.2393234196
 C          3.4807524625       -2.6289136396        0.1564258011
 C          2.7713511425       -1.4219814777        0.0399272363
 O          1.4306654284       -1.6425505082       -0.0412894033
 C          1.2534707216       -2.9912394775        0.0160038127
 C          0.0484991248       -3.6677145944       -0.0497377087
 C          0.0991817564       -5.0473247787        0.0204999222
 C          1.3078786973       -5.7287174831        0.1536966553
 C          2.5095364626       -5.0514530956        0.2162394800
 C          2.4833086528       -3.6643081479        0.1448304741
 H          7.2374175620        0.1964125611       -1.1344382682
 H          5.9779394221        0.9334981103       -2.1242586113
 H          7.1546679782        1.9472474186       -1.2885925930
 H          7.0299468962        2.1557822185        1.2887309345
 H          7.1033445283        0.4032563101        1.4374949570
 H          5.7630109348        1.2923877099        2.1605061445
 H          6.3708623451        3.6885129672       -0.1892721167
 H          5.0045721021        5.6960001853       -0.4002920485
 H          2.5335527690        5.5066942765       -0.4601854495
 H          1.4790401559        3.3004112185       -0.3150933471
 H          1.0600851038        0.9228887149       -2.1923029521
 H         -1.3881021143        0.8202447088       -2.1151266524
 H         -1.8683354807        3.2000569814        0.5832280093
 H         -2.9842351070        5.2363986540        1.3625204414
 H         -5.4079025315        5.2291741701        1.8295209633
 H         -6.7098339073        3.1558399799        1.4980507814
 H         -5.5873865797        1.1090994972        0.7187381357
 H         -3.9746297642        2.4121185028       -1.7906623554
 H         -4.6959254520        1.8918543903       -4.0788772072
 H         -4.6569897347       -0.4525429595       -4.8857766519
 H         -3.9451527998       -2.2620931613       -3.3563299580
 H         -3.3025123228       -3.8245981325        1.1152069497
 H         -3.5427901391       -3.4019390743        3.5389357892
 H         -3.7052471970       -1.0701662584        4.3674760841
 H         -3.5283846792        0.8042738786        2.7959213337
 H         -1.2479960241        0.8398081556        2.1544621284
 H          1.2022803231        0.9637540632        2.0720372052
 H          6.5823033832       -1.3788908879        0.2462887462
 H          5.4243387809       -3.5319452719        0.3333618497
 H         -0.8833590591       -3.1426586973       -0.1658539346
 H         -0.8221992353       -5.6050845705       -0.0385497141
 H          1.3017724236       -6.8072777750        0.2047192414
 H          3.4460509330       -5.5788374002        0.3145216141
