68
 energy: -108.611312006141 gnorm: 0.000144591970 xtb: 6.7.1 (edcfbbe)
C            5.11147001681784        5.10978558369208       -0.14546223196781
O            3.74066638183872        5.09880371005717       -0.45920896211517
C            3.00313012496046        4.00621885173237       -0.13407542350600
C            1.63678839265721        4.09771588893513       -0.48861240066218
C            0.75533747535311        3.07071055913445       -0.21460375921849
C            1.24163985309509        1.93450584259335        0.41493441164138
C            2.62831627637445        1.81689132358868        0.74989195291131
C            3.50481196698150        2.87003327005818        0.48084775168135
C            2.81072762792030        0.52430775056795        1.30954110988118
C            3.91268287754797       -0.17384094754202        1.80693035154358
C            3.71366735461723       -1.43147379725986        2.34412685419625
C            2.44229811923324       -1.99070719318759        2.43110858005852
C            1.32946148322661       -1.31629811554998        1.93292320251406
C            1.53412246692492       -0.09830915751878        1.32116022496615
N            0.60069345075361        0.75961877070451        0.73649251584274
C           -0.66361216024685        0.37712319377935        0.32336356653934
C           -1.77429262207243        1.18476502263529        0.55419606415514
C           -3.04636772646560        0.76427609767389        0.22306056471168
C           -3.25327772455134       -0.51350104111911       -0.38046318230469
C           -2.15115764919943       -1.30004685131181       -0.64225281563413
C           -0.85684124469008       -0.89182599639558       -0.34101220376101
N            0.23969317695285       -1.65212950820523       -0.72416231501453
C            1.41131521205165       -1.14066177485114       -1.26643702133358
C            1.63143001370741        0.08576136217199       -1.87060035400811
C            2.91020138687660        0.36254652295414       -2.32532197847791
C            3.93352854350735       -0.57632772397747       -2.21507517329292
C            3.69804274365382       -1.83164475979645       -1.68911983203862
C            2.42238698081415       -2.13154259009213       -1.22561454166081
C            1.82238610028861       -3.30196368015608       -0.66371014188115
C            2.30034067520627       -4.57394979438813       -0.36740201097682
C            1.44658280244474       -5.48257648645723        0.22417806323670
C            0.13092610063685       -5.13869922909475        0.53592459066714
C           -0.37068489713563       -3.88223791933612        0.24322729072001
C            0.47279415693170       -2.97069275747499       -0.37176865631533
C           -4.63354904409011       -0.95958443242831       -0.75343258257947
C           -5.69411282718907        0.02123082496339       -0.34393938746632
C           -7.03543160926951       -0.25374737737646       -0.56409981034988
C           -8.02271957444062        0.64314991394636       -0.19890278120981
C           -7.67176465401417        1.84703774308342        0.40026890216469
C           -6.34653391077164        2.14209377444415        0.63019735244665
C           -5.35188200373220        1.23410860859896        0.26080784242319
O           -4.06930462842321        1.60690224406116        0.51992429747590
H            5.48624134991089        6.07335314291335       -0.48737161445362
H            5.27663632477488        5.01796481489391        0.93270666946618
H            5.64714302430183        4.30779087827476       -0.66342290966834
H            1.30652810787303        4.99605273509515       -0.98245401663631
H           -0.28052328428847        3.15543923648351       -0.50317865532840
H            4.54566977592521        2.76930808169026        0.74019932490316
H            4.89827602157067        0.26422965633489        1.77008401427036
H            4.55819622119580       -1.98811396127953        2.72318562186682
H            2.30994633094814       -2.95861908295444        2.88859472775743
H            0.34136596306256       -1.74117422870311        2.02824121870869
H           -1.65738379228779        2.13200308733905        1.05641673752690
H           -2.29153241130215       -2.24363148726542       -1.14986378269235
H            0.83507777661059        0.80502086672143       -1.99028794408251
H            3.11107510002652        1.32239250552422       -2.77649916462013
H            4.92173338016126       -0.32138216901238       -2.56848207016143
H            4.48453775130982       -2.56906364498480       -1.63828990615477
H            3.32355965113933       -4.83574617631964       -0.58954388341519
H            1.80047956836620       -6.47499624786328        0.46193547273633
H           -0.50711107819295       -5.86447148003448        1.01740954158290
H           -1.38545989744207       -3.62232900170163        0.50422046801552
H           -4.84277892862615       -1.93427875254742       -0.29548929452686
H           -4.68824513353520       -1.11466549256151       -1.83903109510544
H           -7.30356333880243       -1.19080720477261       -1.03144677811961
H           -9.06027488119866        0.40815205171414       -0.37904598276400
H           -8.43655014990628        2.55263238272511        0.68691089860567
H           -6.04683996756357        3.06881322482073        1.09381002067888
