68
 energy: -108.611313017085 gnorm: 0.000044738400 xtb: 6.7.1 (edcfbbe)
C            5.19866632221871        5.03956905619056       -0.12973458121268
O            3.83363732540863        5.04549185368526       -0.46786077230528
C            3.07481744245220        3.96614962038557       -0.14749493529020
C            1.71599420607311        4.07515077533005       -0.52479718557835
C            0.81477781912776        3.06382247145190       -0.25659928559683
C            1.27375150695368        1.92578804004404        0.38986669205648
C            2.65312422372243        1.78940971810669        0.74653172325561
C            3.54960290830915        2.82704162544271        0.48340240383863
C            2.80677115861433        0.49876023643661        1.31944138013190
C            3.89007133856897       -0.21265945221192        1.83820641251433
C            3.66325340526584       -1.46241858333220        2.38270353030365
C            2.38181469842415       -2.00033531786595        2.45648720288988
C            1.28722248917299       -1.31239240377453        1.93726216713770
C            1.52024918247613       -0.10342158321609        1.31764809538397
N            0.60952909296914        0.76393818164803        0.71186355097275
C           -0.65580930169196        0.39977671977269        0.28569220173018
C           -1.75458409567903        1.22849404497687        0.49912744710532
C           -3.03045841304614        0.82797492062957        0.15870311434646
C           -3.25295385150577       -0.44803010325875       -0.44348249905161
C           -2.16258895393891       -1.25630261843160       -0.68648480954682
C           -0.86457504752020       -0.87152769541040       -0.36971903123691
N            0.22027139956583       -1.66045220419627       -0.72671997429980
C            1.41425224925507       -1.18357319325187       -1.25141823560077
C            1.67657970982951        0.03075983108338       -1.86326419634647
C            2.97051200785266        0.27150331438679       -2.29469912221782
C            3.96806952668466       -0.69102378476433       -2.15484154821188
C            3.69104789543936       -1.93495424005016       -1.62225625021593
C            2.39944844018029       -2.19880660805904       -1.18173381995587
C            1.75988312451631       -3.34859960234014       -0.62090352987548
C            2.20021050875392       -4.62928214105839       -0.30431251267425
C            1.31311472200427       -5.51085269510324        0.27914865028658
C            0.00118007080118       -5.13118665171342        0.56351853409379
C           -0.46314622633264       -3.86530840869927        0.25032754249781
C            0.41384845939047       -2.98118856273426       -0.35769761308526
C           -4.63550646686961       -0.86425799938498       -0.84145207089301
C           -5.68755932236690        0.10866002943528       -0.39301635510529
C           -7.03354717096168       -0.16531521839108       -0.58340602885599
C           -8.01202308152783        0.72891416707865       -0.18893785388054
C           -7.64712533129345        1.92942477325017        0.40857539788354
C           -6.31688761579549        2.22299675342076        0.61001844694969
C           -5.33128628019541        1.31697748038678        0.21281846952106
O           -4.04289211487112        1.68582043256114        0.44811601032656
H            5.59306263560755        5.99522326619495       -0.47178272405657
H            5.34324530206249        4.95348503027726        0.95186974095502
H            5.73215850298414        4.22635345312421       -0.63220357653542
H            1.40723942176336        4.97435767627449       -1.03082665254365
H           -0.21508960556115        3.16169795493757       -0.56204512164171
H            4.58462649053696        2.71277051848316        0.75995008562409
H            4.88301513043188        0.20928426520464        1.81200948910345
H            4.49330279623609       -2.02934320646224        2.77813669002590
H            2.22733033016880       -2.96191334157592        2.92034835143213
H            0.29116315741239       -1.72049025083150        2.02237160173832
H           -1.62596095716804        2.17614562096569        0.99773043609645
H           -2.31394253592114       -2.19973826154017       -1.19118689296923
H            0.90099339007673        0.76834655823902       -2.00561115274986
H            3.20400106439996        1.22144095783482       -2.75111173621644
H            4.96918345909338       -0.46386900669196       -2.49039923149063
H            4.45781870195958       -2.69101705199221       -1.54880964783386
H            3.22050637697772       -4.91853516167216       -0.50478216536374
H            1.63745156678182       -6.50957726406750        0.53215530632733
H           -0.66370711893133       -5.83603581035382        1.03972389064989
H           -1.47548378323899       -3.57767866308889        0.49080874762474
H           -4.85624372610650       -1.85756148062315       -0.43278956318788
H           -4.68624078368457       -0.96527955658802       -1.93404266496679
H           -7.31254103266888       -1.09915097190821       -1.05083246131512
H           -9.05354347456537        0.49446007369951       -0.34534177357081
H           -8.40500454997875        2.63313593802914        0.71733524050886
H           -6.00653915774739        3.14652302291217        1.07298590966790
