68
 energy: -108.714865407647 gnorm: 0.000043591527 xtb: 6.7.1 (edcfbbe)
C            6.30837569944761       -0.00648386633784        2.06776081080558
O            5.10273982496915        0.64758990463024        2.37120189708647
C            3.93886769132901        0.11145334015862        1.89329572356121
C            2.78052769987722        0.83477552664543        2.21531446784223
C            1.53609914675199        0.43665014242068        1.78207150166546
C            1.45711326074862       -0.69758639441486        0.98729389478970
C            2.60186787938004       -1.47156337104830        0.71774573547163
C            3.85350465861590       -1.06294277630055        1.16377418900927
C            2.15515240248023       -2.60975903307322       -0.03464995621171
C            2.80524183089442       -3.70449573499814       -0.58805681228181
C            2.06250629591087       -4.63100730004258       -1.29197638410122
C            0.68857836117054       -4.47175184033594       -1.45620224257852
C            0.01889133184862       -3.39004795167147       -0.91698148133299
C            0.75801587353638       -2.46404936148324       -0.19629128925558
N            0.34542428680718       -1.29715833517347        0.41911875135588
C           -0.89075128718139       -0.67014186171165        0.21767767160442
C           -2.06314449522732       -1.32315802269318        0.56506365555018
C           -3.30106072454602       -0.71788997404098        0.37983754007481
C           -3.38300786658945        0.56613306352704       -0.15428609754211
C           -2.20894279183654        1.20865897220378       -0.51314157119059
C           -0.96503609783189        0.61476680653441       -0.35063338899527
N            0.19519013293960        1.29845108126380       -0.74422692372351
C            0.64527777183481        2.48664336390513       -0.19867736836425
C           -0.00408715674776        3.36576912982404        0.65445504703633
C            0.68849579260559        4.48471748996734        1.07650801774380
C            1.99776615956435        4.72517261635670        0.66760261344705
C            2.65289553985939        3.84613746156841       -0.17167590762194
C            1.97715680703927        2.71629080046937       -0.61101162228337
C            2.34306837759917        1.60857319631324       -1.44850758307687
C            3.50040638731920        1.26406297094665       -2.13256655002175
C            3.50639345694845        0.10215786511361       -2.87875233808476
C            2.36744215154378       -0.69273288577038       -2.97944162782454
C            1.20295728780731       -0.36746327514310       -2.31175619834304
C            1.21265366173787        0.76463737810609       -1.51166863391465
C           -4.71270663788555        1.23845356022747       -0.35214967890110
C           -5.85742701656125        0.37472132639122        0.10221751720155
C           -7.16465782841918        0.83259308271950        0.01128449745339
C           -8.22868815349774        0.05116895555833        0.42163150768705
C           -7.99396591779450       -1.21414985519173        0.93478352011363
C           -6.70147546771257       -1.68821575220323        1.03490199187476
C           -5.63414258519154       -0.89719472322970        0.62052652826111
O           -4.38838176301728       -1.44664630355049        0.75681258973899
H            6.46746113810670       -0.07474469302427        0.98625661850932
H            7.09524717263674        0.60288908503132        2.51001279604799
H            6.34363446974686       -1.01109697386979        2.50310703499003
H            2.89386792885013        1.72319023203648        2.81537969429284
H            0.65408655115697        0.99362580312255        2.05782605391515
H            4.72004139988527       -1.66164243062421        0.93514640199154
H            3.87200881210366       -3.82238814509843       -0.47147654378998
H            2.54962692346275       -5.49032352528149       -1.72857739474060
H            0.13477096729225       -5.20825661682932       -2.01980030736372
H           -1.04405866270820       -3.26733274780218       -1.06274016895655
H           -2.02536675791834       -2.30561398727174        1.00825149398440
H           -2.26036403795598        2.19317180115136       -0.95499863318371
H           -1.01342030424110        3.17792378825159        0.99033199957612
H            0.20490467727939        5.18566467768068        1.74113764543542
H            2.50581334297888        5.61037985180630        1.02034961690605
H            3.67192481249592        4.02669601457483       -0.47827011665742
H            4.37434367759228        1.89587083530958       -2.08055040532851
H            4.40045920662854       -0.18960196639708       -3.40975731383377
H            2.39229078261484       -1.58179213064901       -3.59181272681558
H            0.31648371517148       -0.97511304386169       -2.41331743189233
H           -4.84159006740105        1.48945280697751       -1.41202045203306
H           -4.72997737581801        2.18740036539320        0.19730772648593
H           -7.34206495805746        1.82011469332228       -0.39021062533279
H           -9.23699940038470        0.42730534797214        0.34134177047764
H           -8.81782706258961       -1.83204779158510        1.25760494448380
H           -6.49042993143312       -2.66887166675775        1.43125130907795
