  50
        -80.89492760
 C          6.0829339084        2.6494000101       -0.9861559285
 C          4.9351236017        3.1809363424       -0.4136222906
 C          3.8928228797        2.3377781474       -0.0809386583
 C          4.0347498419        0.9736475778       -0.3529386219
 N          3.0242843706        0.0673676122       -0.0504713461
 C          1.6551425017        0.2821489616       -0.1231358570
 C          0.9423559744        1.3524334231       -0.6470164143
 C         -0.4365874812        1.2919867609       -0.6279159036
 C         -1.1176653250        0.1898632497       -0.0961460568
 N         -2.5200679626        0.1878126977       -0.0884178564
 C         -3.3304826366       -0.8172744679       -0.5779307053
 C         -2.9844015716       -2.0046575928       -1.2068609196
 C         -4.0072741701       -2.8316266122       -1.6293413415
 C         -5.3449917035       -2.4901385237       -1.4413448548
 C         -5.6953849688       -1.3007470420       -0.8349580498
 C         -4.6849948653       -0.4520094536       -0.4018706225
 C         -4.6815518172        0.8359475777        0.2329455550
 C         -5.6859791722        1.6896045085        0.6695740940
 C         -5.3283622767        2.8770140966        1.2760751347
 C         -3.9886924451        3.2113406629        1.4618580734
 C         -2.9716687474        2.3789369534        1.0358564422
 C         -3.3245488575        1.1941936416        0.4054626799
 C         -0.4134173596       -0.8995449719        0.3949729619
 C          0.9716461195       -0.8557814266        0.3633498343
 C          1.9803345770       -1.8106188384        0.7293767370
 N          1.8461838792       -3.0265685970        1.2371918979
 C          2.9625574975       -3.6887236541        1.4729863176
 C          4.2396196996       -3.1848957220        1.2270284489
 C          4.3955375821       -1.9148822140        0.6967270614
 C          3.2307733526       -1.2112596473        0.4368443278
 N          5.1449314824        0.4624004133       -0.8719705950
 C          6.1370667517        1.2788708944       -1.1752571442
 H          6.9138594477        3.2788483076       -1.2605837913
 H          4.8595867521        4.2404136179       -0.2162567884
 H          3.0080371629        2.7114027743        0.4081242932
 H          1.4375462041        2.2000943553       -1.0939975805
 H         -1.0114186893        2.1030082722       -1.0491394443
 H         -1.9513512204       -2.2716761248       -1.3702495201
 H         -3.7640039352       -3.7629485228       -2.1192506392
 H         -6.1150514351       -3.1656437401       -1.7833450300
 H         -6.7316989338       -1.0291203587       -0.7015332546
 H         -6.7241967192        1.4233384645        0.5395593462
 H         -6.0940647348        3.5558145047        1.6212691694
 H         -3.7397963671        4.1404940190        1.9534192810
 H         -1.9362868206        2.6381611023        1.1997253516
 H         -0.9196602934       -1.7630553538        0.7949199168
 H          2.8335232519       -4.6812422232        1.8833101157
 H          5.1048600522       -3.7898588989        1.4493711233
 H          5.3666828614       -1.4965357019        0.4847963654
 H          7.0137024281        0.8014581888       -1.5929597023
  50
        -80.89491080
 C          6.0978542349        2.5823756034       -1.1100967266
 C          4.9494269806        2.5811633703       -1.8904234181
 C          3.9017749325        1.7472139823       -1.5507890803
 C          4.0394184332        0.9440772120       -0.4146534421
 N          3.0245980704        0.0840368119       -0.0091982822
 C          1.6561421148        0.2960886929       -0.1019470384
 C          0.9467903584        1.4345692676       -0.4597112861
 C         -0.4328241080        1.3794880057       -0.4418811419
 C         -1.1178047719        0.2236731269       -0.0470631860
 N         -2.5199651279        0.2144706063       -0.0530873558
 C         -3.3132418585       -0.7525221984       -0.6384419344
 C         -2.9459894916       -1.8784847902       -1.3613378646
 C         -3.9539619547       -2.6768570270       -1.8666694727
 C         -5.2977417117       -2.3661609939       -1.6685007753
 C         -5.6690306936       -1.2362588593       -0.9679738113
 C         -4.6737948541       -0.4176889363       -0.4501017838
 C         -4.6925548743        0.8095660529        0.2949984492
 C         -5.7129602039        1.6102127998        0.7908139438
 C         -5.3778093752        2.7420942677        1.5064758265
 C         -4.0448704333        3.0705532668        1.7434855169
 C         -3.0121983348        2.2900580540        1.2604190771
 C         -3.3420251439        1.1644866390        0.5186407340
 C         -0.4162580056       -0.9025936178        0.3581720855
 C          0.9684706718       -0.8619077031        0.3288100441
 C          1.9737788963       -1.8120960922        0.7159218837
 N          1.8350586344       -3.0458476859        1.1773961204
 C          2.9491787434       -3.6951943809        1.4557989013
 C          4.2281923594       -3.1650179126        1.2879257328
 C          4.3887937295       -1.8770777586        0.8041802274
 C          3.2264881917       -1.1811021267        0.5142453245
 N          5.1496996903        0.9241454474        0.3135198712
 C          6.1467453056        1.7186921816       -0.0290424236
 H          6.9331820823        3.2219955565       -1.3450835915
 H          4.8776860612        3.2136378798       -2.7633376320
 H          3.0160028451        1.6875962446       -2.1620156944
 H          1.4446700387        2.3519637875       -0.7319185137
 H         -1.0035916649        2.2442754682       -0.7446943539
 H         -1.9078794700       -2.1215175641       -1.5305134651
 H         -3.6940100640       -3.5612088768       -2.4297015097
 H         -6.0557742247       -3.0175813451       -2.0776044504
 H         -6.7099894861       -0.9876894955       -0.8256793742
 H         -6.7459324820        1.3457469015        0.6216474633
 H         -6.1560707419        3.3794446990        1.8991844258
 H         -3.8133144595        3.9531077906        2.3217985131
 H         -1.9830960810        2.5427227619        1.4672746981
 H         -0.9255065480       -1.7850353284        0.7103279059
 H          2.8165466302       -4.6996929013        1.8345409095
 H          5.0913975588       -3.7622772141        1.5373356722
 H          5.3617724984       -1.4319340279        0.6692453037
 H          7.0232358595        1.6546011345        0.6023714854
  50
        -80.89474619
 C          5.9055402260        2.7665635624       -1.1164862052
 C          6.1465161519        1.9979969833        0.0143733034
 C          5.1982047965        1.0801271239        0.4222283835
 C          4.0323149580        0.9514491122       -0.3392018942
 N          3.0472074083        0.0328024222        0.0062036996
 C          1.6778752012        0.2343357057       -0.1230608764
 C          0.9871790312        1.3229376470       -0.6337621386
 C         -0.3920443655        1.2783243904       -0.6214038633
 C         -1.0885890131        0.1822656240       -0.0945949405
 N         -2.4913735501        0.1858772135       -0.1075425701
 C         -3.2946576174       -0.8285885098       -0.5890942686
 C         -2.9395678409       -2.0295372227       -1.1867067952
 C         -3.9559663809       -2.8660285311       -1.6058364991
 C         -5.2963726221       -2.5209267452       -1.4454388456
 C         -5.6555360040       -1.3183375027       -0.8711778205
 C         -4.6516534740       -0.4600298729       -0.4418159199
 C         -4.6574633637        0.8407317654        0.1660666478
 C         -5.6688984627        1.7029728845        0.5684070398
 C         -5.3210980803        2.9019344276        1.1574353112
 C         -3.9845509574        3.2388152740        1.3603570469
 C         -2.9606199497        2.3982002212        0.9682501256
 C         -3.3030716173        1.2018966591        0.3538538671
 C         -0.4018561304       -0.9030855630        0.4289419374
 C          0.9843528120       -0.8759375137        0.4041250520
 C          1.9828443553       -1.8109887639        0.8403742976
 N          1.8324698999       -3.0145572968        1.3693272662
 C          2.9375272912       -3.6860817254        1.6304396986
 C          4.2191655031       -3.2163824212        1.3500792134
 C          4.3922725366       -1.9572218952        0.7977529418
 C          3.2436427446       -1.2156783784        0.5657788379
 N          3.7904704219        1.7077871321       -1.4032609467
 C          4.7001109775        2.5894834002       -1.7743997396
 H          6.6247443464        3.4903528722       -1.4642028756
 H          7.0582875989        2.1233022364        0.5801096737
 H          5.3335317794        0.5037655374        1.3229532283
 H          1.5149114552        2.1657545600       -1.0483313069
 H         -0.9563639624        2.0975852734       -1.0406874528
 H         -1.9041556802       -2.2998346426       -1.3281951348
 H         -3.7056448361       -3.8081816169       -2.0708610819
 H         -6.0613938781       -3.2039802151       -1.7841860854
 H         -6.6939559285       -1.0438509624       -0.7598777239
 H         -6.7046857300        1.4340153688        0.4261440473
 H         -6.0920703094        3.5872620777        1.4766981112
 H         -3.7434609249        4.1767085418        1.8391036843
 H         -1.9284361906        2.6603716310        1.1459110407
 H         -0.9219146187       -1.7451839748        0.8561752019
 H          2.7943459013       -4.6634783077        2.0705997168
 H          5.0759104045       -3.8399990407        1.5533218264
 H          5.3775998756       -1.5970203784        0.5411017523
 H          4.4420985121        3.1762031759       -2.6462282151
  50
        -80.89343935
 C          5.8628501160        2.1716656623       -2.0743846841
 C          6.0620154883        1.9395211818       -0.7201184660
 C          5.1327027921        1.1971385731       -0.0183358306
 C          4.0255467329        0.6963491737       -0.7110900231
 N          3.0483641378       -0.0441816609       -0.0544436338
 C          1.6802763141        0.0518645546       -0.2861024169
 C          0.9977045654        0.7179877232       -1.2928745043
 C         -0.3823733077        0.6875935629       -1.2680579091
 C         -1.0814109173        0.0187647461       -0.2567426868
 N         -2.4879719387        0.0590319240       -0.2431084581
 C         -3.3324339253       -0.4447560937       -1.2066361801
 C         -3.0249850843       -1.1266996131       -2.3748400688
 C         -4.0755286060       -1.5609700191       -3.1598043521
 C         -5.4003815018       -1.3263785557       -2.7961684440
 C         -5.7111269752       -0.6528559658       -1.6317596313
 C         -4.6734444101       -0.2072617706       -0.8234215844
 C         -4.6205507931        0.4888757930        0.4316288291
 C         -5.5845819323        1.0117396975        1.2840610252
 C         -5.1721198670        1.6595617427        2.4313172236
 C         -3.8185421766        1.7929905892        2.7355946297
 C         -2.8403585473        1.2796575188        1.9066130931
 C         -3.2507714310        0.6228071663        0.7558987690
 C         -0.4052737484       -0.6626458048        0.7426400914
 C          0.9810700779       -0.6525371636        0.7181076226
 C          1.9744658823       -1.2577705224        1.5601685411
 N          1.8189946652       -2.0634809089        2.5983229521
 C          2.9213745289       -2.5341446131        3.1491083449
 C          4.2054398866       -2.2569723867        2.6833257838
 C          4.3838051323       -1.4093134636        1.6016986458
 C          3.2373790005       -0.8662187415        1.0411258706
 N          3.8274514835        0.9342840394       -2.0018527225
 C          4.7198627808        1.6527664077       -2.6583157323
 H          6.5654253512        2.7507234492       -2.6514896803
 H          6.9233938109        2.3488163407       -0.2125418487
 H          5.2341143678        1.0412899982        1.0434421520
 H          1.5336106749        1.2382951333       -2.0690871422
 H         -0.9454959407        1.1982450990       -2.0350783878
 H         -1.9991370234       -1.3178624558       -2.6532862925
 H         -3.8667266618       -2.0982877782       -4.0733550694
 H         -6.1934382563       -1.6846381285       -3.4358754169
 H         -6.7384265676       -0.4796447166       -1.3479704228
 H         -6.6337887285        0.9169378516        1.0474715870
 H         -5.9063568446        2.0759963893        3.1050679111
 H         -3.5286957193        2.3118388563        3.6376012389
 H         -1.7916275548        1.3888945766        2.1402645352
 H         -0.9364460361       -1.1905231375        1.5185007107
 H          2.7740412012       -3.1863202615        3.9991265309
 H          5.0590527142       -2.7135012393        3.1596086585
 H          5.3700331232       -1.2141541380        1.2067424427
 H          4.4976174274        1.8166057408       -3.7045575035
  50
        -80.89187340
 C          5.8688534318        2.3659483113       -1.8442474709
 C          6.0938280226        1.9860091906       -0.5281706721
 C          5.1582941925        1.2008437430        0.1179270465
 C          4.0203518405        0.8102338497       -0.5935202289
 N          3.0417385320        0.0157636553       -0.0029155965
 C          1.6738909251        0.1531632850       -0.1970169169
 C          0.9839785811        1.0380095247       -1.0122585727
 C         -0.3954645813        0.9962774741       -0.9859809082
 C         -1.0841726301        0.0963799384       -0.1659423389
 N         -2.4981009118        0.1083166921       -0.1702850437
 C         -3.3101940588       -0.6143367701       -1.0119004442
 C         -2.9596340480       -1.5131951386       -2.0082409092
 C         -3.9819698378       -2.1131887381       -2.7172732087
 C         -5.3193864068       -1.8295953417       -2.4449779329
 C         -5.6720396624       -0.9349334263       -1.4543700190
 C         -4.6636136103       -0.3161372057       -0.7266819626
 C         -4.6504932665        0.6417877219        0.3429412419
 C         -5.6402092015        1.3136328211        1.0489379841
 C         -5.2620461831        2.1958007739        2.0414211385
 C         -3.9175327600        2.4144310021        2.3376679777
 C         -2.9135442430        1.7596590791        1.6513921216
 C         -3.2897682084        0.8735954566        0.6529361927
 C         -0.4028924311       -0.7894746381        0.6504657339
 C          0.9843626723       -0.7580828296        0.6326419253
 C          1.9870200823       -1.5079221093        1.3358558531
 N          1.8439643318       -2.4981135003        2.2019786474
 C          2.9532957311       -3.0419272173        2.6641358394
 C          4.2335338600       -2.6571461284        2.2695995572
 C          4.3994343103       -1.6201540093        1.3655795880
 C          3.2445871065       -1.0042503391        0.9071841055
 N          3.7945566004        1.1943049446       -1.8437109494
 C          4.6928585859        1.9510131272       -2.4462625931
 H          6.5778171652        2.9774034858       -2.3786423774
 H          6.9830275006        2.3094709011       -0.0069840493
 H          5.2814031328        0.9262531551        1.1530530322
 H          1.5120607884        1.7260922278       -1.6512965839
 H         -0.9673004108        1.6689324117       -1.6078643235
 H         -1.9228771794       -1.7329646359       -2.2170529572
 H         -3.7411715853       -2.8177597299       -3.4999107585
 H         -6.0892835770       -2.3203197861       -3.0221281455
 H         -6.7090069850       -0.7168681904       -1.2469118829
 H         -6.6826765414        1.1469715303        0.8224298019
 H         -6.0170492346        2.7281033496        2.6010926581
 H         -3.6564941086        3.1107972234        3.1212066933
 H         -1.8712043833        1.9271023908        1.8801206860
 H         -0.9283223025       -1.4834176670        1.2869430599
 H          2.8157515272       -3.8441374549        3.3762379875
 H          5.0945346717       -3.1748590307        2.6627861441
 H          5.3837795623       -1.3334172670        1.0258888044
 H          4.4502408343        2.2312201893       -3.4627428903
