102
 energy: -170.217699384247 gnorm: 0.000068506413 xtb: 6.7.1 (edcfbbe)
C           10.35884467943761       -2.88313655498047       -2.76306268674490
C            8.99540506800741       -3.04085702104895       -2.61993408772072
C            8.28362461202107       -2.23324009547133       -1.74599596204719
C            8.92718072214942       -1.26085838489866       -0.99065438819733
C           10.30547281224703       -1.08415966154383       -1.17160378679856
C           11.01097826952174       -1.89382851132204       -2.04220172394383
O           11.01459163590475       -0.10490923935074       -0.52218158155169
C           10.32403028447010        0.71246799960179        0.33727944044316
C           11.05214685821876        1.68924307692952        0.99074090408334
C           10.43351054862551        2.53281517850737        1.90139373221951
C            9.08806942815097        2.37720985019772        2.16560286206810
C            8.35273305762148        1.40050082138961        1.51134183960849
C            8.94970462106882        0.56981095526219        0.57123216459250
N            8.23976002726125       -0.42709860241143       -0.10414255709236
C            6.85812219687855       -0.59526849916524        0.11217863939012
C            6.37145633528222       -1.78896917367282        0.64375207370507
C            5.01970139223715       -1.95364591602473        0.85570895645471
C            4.12935447567395       -0.92540761410077        0.54330267135652
C            2.70331714695035       -1.09777781787584        0.77127214845228
N            2.27727812758481       -2.20166814411262        1.39872617174769
N            1.02290298259919       -2.48683878327655        1.33111946657426
C            0.13746729729204       -1.65711023980379        0.80457384568037
C           -1.23125017378016       -2.10991662708976        0.60129095771645
C           -1.80950099464798       -3.01508711458782        1.49063663161606
C           -3.14192480896888       -3.35419355862606        1.37445571915418
C           -3.91614932915495       -2.80240270140555        0.35719080594482
N           -5.29710430122743       -3.07125858248723        0.27144973783498
C           -5.77201811495114       -4.35726967315989        0.00778664526615
C           -4.92136407781860       -5.43960429294303       -0.17509132743505
C           -5.42859154062709       -6.70280394614148       -0.44016825080460
C           -6.79068003930446       -6.90197899879094       -0.53545650986180
C           -7.65208515725668       -5.82507716169489       -0.38311835915452
C           -7.15212655958835       -4.56330397798518       -0.12231006556078
O           -8.06362870706948       -3.54064231923607       -0.01970231238908
C           -7.58311029121799       -2.29196854761973        0.28713076303171
C           -8.51234986199716       -1.28151082683971        0.45001425700196
C           -8.10270460455222       -0.00190513008707        0.79570640334616
C           -6.76170727767344        0.25304467380744        0.99569829834857
C           -5.82471454683982       -0.75500962625907        0.82631049526759
C           -6.21552527048261       -2.03320510417979        0.44755682570796
C           -3.32359513981755       -1.95309085448306       -0.57532241782138
C           -1.99478704232505       -1.61115129637889       -0.45649082372638
C            0.57278496047436       -0.32484873967753        0.53840113652312
C           -0.34932710425806        0.79654872528678        0.40768205044290
C           -1.53437016358846        0.84368098529582        1.14526761510378
C           -2.45659335227305        1.83917426948617        0.91272276936491
C           -2.21602125450169        2.80834507324018       -0.06040344227262
N           -3.20720092009900        3.76679884616134       -0.34543338107690
C           -4.44270009463798        3.35520364439492       -0.85457677997991
C           -4.69575754510012        2.03607535455270       -1.20953188191432
C           -5.93116281999621        1.66114938508894       -1.71518436174877
C           -6.92974581585063        2.59873378165293       -1.88060409125759
C           -6.68128540153357        3.92626741755172       -1.56453609232845
C           -5.44860308673703        4.30673866514904       -1.06724526713442
O           -5.26234449723788        5.64276259423062       -0.81379396327930
C           -4.02319196682477        6.03810241704476       -0.37374881034227
C           -3.83544308574034        7.39127384263639       -0.16322935374221
C           -2.62274451319136        7.86392713685239        0.31668823746570
C           -1.60872951121862        6.97178215430340        0.59942970332139
C           -1.79016811224164        5.61351896343754        0.38666724281276
C           -2.98758093889944        5.12791484765321       -0.12244251075195
C           -1.00755536997978        2.80176312424993       -0.75239712959497
C           -0.08063987793381        1.80817000153584       -0.51358229275244
N            1.87023174387914       -0.11937916525251        0.42448636788145
C            4.61836187952407        0.26815403352639        0.01114690950956
C            5.96973666947179        0.43177483964616       -0.20348387628556
H           10.91812327775829       -3.51220418332209       -3.43733057102217
H            8.46938588995721       -3.79151170261825       -3.18946721439514
H            7.21566718738055       -2.35630078756089       -1.65764516729988
H           12.07154758952126       -1.72912540390226       -2.14569311873108
H           12.10591671602970        1.76862493563636        0.77645565107179
H           11.00902117714899        3.29384861895412        2.40418444390220
H            8.59608205380055        3.01119799030685        2.88711600493596
H            7.30634674092700        1.27824613213563        1.74267991868707
H            7.06492097206702       -2.57833215799641        0.89363981052627
H            4.63113369491163       -2.86911559478545        1.27309764277711
H           -1.20516302962514       -3.41678464981016        2.28909379326963
H           -3.59839825993366       -4.02732919986621        2.08480678275062
H           -3.85401290643094       -5.29312235817867       -0.12036873793946
H           -4.74518303109085       -7.52704584767289       -0.57455661729104
H           -7.19040100507928       -7.88303872331436       -0.73763096354943
H           -8.72025722750748       -5.94307720681044       -0.47107053693055
H           -9.55443346006964       -1.51866207620914        0.30689220827038
H           -8.83358859838662        0.78163379119427        0.91621433642842
H           -6.43250459585435        1.23952432716620        1.28291379171823
H           -4.77920293156728       -0.54648717156498        0.99173325721023
H           -3.92013973996048       -1.55752141088122       -1.38406909446094
H           -1.54040284987811       -0.96015281254291       -1.18902416725011
H           -1.72284841816347        0.10510837441710        1.91019619001848
H           -3.37822228277533        1.87245518899499        1.47458484918250
H           -3.92058188077043        1.29511098077887       -1.09152291574892
H           -6.10549262296144        0.62886557156254       -1.97552064666135
H           -7.89540646937843        2.30936577084197       -2.26311751547528
H           -7.43242964274075        4.68741317114743       -1.70263114619717
H           -4.65523766651285        8.05917318896343       -0.37397789812563
H           -2.48528031079803        8.92160785824013        0.47629490923816
H           -0.66672809398271        7.32199931464739        0.99245951737628
H           -0.99643377637275        4.92483522850716        0.63022027836043
H           -0.81429290138953        3.56281016567363       -1.49373981252577
H            0.84690960347791        1.77790412277376       -1.06438259897774
H            3.92271338850805        1.05671603283466       -0.22962867575529
H            6.35074186263919        1.35149449955204       -0.62264300050308
