102
 energy: -170.217652269162 gnorm: 0.000061853573 xtb: 6.7.1 (edcfbbe)
C           10.18398825251582       -3.13812847438703       -3.05278339685473
C            8.81691453720852       -3.24635893382723       -2.89915687600171
C            8.15832657573357       -2.50127324867002       -1.93276192431092
C            8.85965552785453       -1.64295505736132       -1.09526053771132
C           10.24253101262701       -1.51490890220009       -1.28256132187231
C           10.89452515296045       -2.26163619001797       -2.24604475093183
O           11.00865164100755       -0.64499124639032       -0.54749513136835
C           10.37197103719370        0.10821590182757        0.40711761203162
C           11.15670690294956        0.97142363655719        1.14882001253283
C           10.59244497292898        1.74209846246016        2.15459491183708
C            9.24368107880583        1.62734897399955        2.42275822165270
C            8.45162068873809        0.76464503343589        1.68035383685333
C            8.99504398986372        0.01012516123027        0.64816069655491
N            8.22703875153427       -0.87259615186602       -0.11597945442239
C            6.83842133691062       -0.98164049376281        0.09669504886568
C            6.28632135915546       -2.18844337874735        0.52374727336805
C            4.92805283758125       -2.29356059745366        0.73320536689739
C            4.09740142142129       -1.19286419169825        0.51956210152321
C            2.66434687324018       -1.30336581620117        0.74293952727851
N            2.18376455701202       -2.41027195698309        1.32326771378614
N            0.91583516381931       -2.62712773025761        1.25112693082757
C            0.07306788896262       -1.73120218581732        0.76404254120680
C           -1.31726359881077       -2.10676372176603        0.54998275851148
C           -1.93608612145654       -3.01772052883338        1.40550864266762
C           -3.28203946272884       -3.29260058213351        1.27777757951228
C           -4.03013801023362       -2.67020029650843        0.28175626523709
N           -5.42008307269043       -2.88087703214926        0.18364646854436
C           -5.94307557404464       -4.14024075789748       -0.11646628559103
C           -5.13350363108483       -5.24676400579763       -0.33754676672922
C           -5.68772464345914       -6.48208075150266       -0.63748804329405
C           -7.05662641286235       -6.62877819343962       -0.73042250289801
C           -7.87726036625261       -5.52624871014018       -0.54124062656106
C           -7.33025671854025       -4.29192638554072       -0.24558710706530
O           -8.20324117457960       -3.24033421530024       -0.10803135767818
C           -7.67586460842315       -2.01904126215924        0.23015069666651
C           -8.56718676560923       -0.98032521542089        0.42435863863294
C           -8.11016700077319        0.27360962026888        0.80308113013918
C           -6.76008536057097        0.47397120006190        1.00439642569770
C           -5.86096920402004       -0.56241023271380        0.80331508138689
C           -6.29912195649027       -1.81490918429402        0.39172113805132
C           -3.40016427104078       -1.81120562857894       -0.61678564278881
C           -2.05766462604073       -1.53280383485862       -0.48574434269721
C            0.57583909100557       -0.41418089543531        0.54709009929226
C           -0.28472816217088        0.75897794191643        0.45739859881137
C           -1.46596124887924        0.84665220163830        1.19710764908953
C           -2.32676893929781        1.90424302933481        1.00603539986674
C           -2.02789317131574        2.89564585854837        0.07213325744239
N           -2.95584056478538        3.92630992576848       -0.16906589877916
C           -4.21813366822590        3.61740902343408       -0.68540104640023
C           -4.56342513148924        2.33088813425496       -1.08028506703555
C           -5.82284602991812        2.05888543297655       -1.59257223592428
C           -6.75412228078848        3.06838204232864       -1.72440489102704
C           -6.41312893463120        4.36477290003833       -1.36802551912920
C           -5.15595911686551        4.64268114505046       -0.86410554354366
O           -4.87707188993892        5.95397914519727       -0.57018306111008
C           -3.61219010994978        6.24887909485696       -0.12496471059641
C           -3.33044180842862        7.57892726014528        0.12477206990513
C           -2.08659632186548        7.95192778108829        0.61253129556626
C           -1.13646937006553        6.98341826774915        0.86426619562150
C           -1.41242133514824        5.64800902887121        0.61225602155275
C           -2.64166133321955        5.26183828347830        0.09374484301199
C           -0.82301512954152        2.84217449874863       -0.62437005404155
C            0.04297800935289        1.78693607242945       -0.42603181088996
N            1.88218740086457       -0.27021357357769        0.43897165650139
C            4.65196489669915        0.01363804573751        0.09102592699010
C            6.01006218674400        0.11882441326560       -0.11786378588594
H           10.70168844061204       -3.71849925320749       -3.80000151864219
H            8.24668960935967       -3.90868805941103       -3.53220125262393
H            7.08713632334341       -2.58286896542803       -1.83564656561694
H           11.96028401705492       -2.13747034647489       -2.35282776156884
H           12.21066142680311        1.02104358484786        0.92662048447697
H           11.21215699583448        2.41467330413887        2.72625943445048
H            8.79316154020223        2.20446808940268        3.21556980291518
H            7.40249192536601        0.67148046341359        1.91311593013574
H            6.93416421245872       -3.03538542706250        0.69523082923483
H            4.48897302036373       -3.21873110343534        1.07178993605713
H           -1.35066483584525       -3.47659037765332        2.18705374070567
H           -3.76838178504254       -3.97158266581145        1.96227630982992
H           -4.06123985667045       -5.14116677226531       -0.28518254378146
H           -5.03543691697717       -7.32610402126044       -0.80064185605598
H           -7.49283769748345       -7.58821811135232       -0.95914077676840
H           -8.94942136322394       -5.60249713090049       -0.62665333199796
H           -9.61764982168131       -1.17566917728643        0.27934871554657
H           -8.81168058422846        1.07952219061472        0.94820674136504
H           -6.39380703576881        1.43946958609251        1.31684272000813
H           -4.80821664916384       -0.39603803172999        0.97062940738585
H           -3.97756692659362       -1.35926295353508       -1.40974821477378
H           -1.57452446343338       -0.87462142781611       -1.19300362390022
H           -1.69890092575153        0.09085754141605        1.93239801293424
H           -3.24441240297977        1.97066006112411        1.57150299760741
H           -3.84172938591377        1.53415861957063       -0.98948328528660
H           -6.06885258340690        1.04979706792516       -1.88405898998838
H           -7.73825413750691        2.85914089563702       -2.11206610647915
H           -7.10954306312570        5.18040018009583       -1.47931486135098
H           -4.10255862781101        8.30793703068154       -0.06214884253132
H           -1.87545401312715        8.99230696127333        0.80248065793202
H           -0.17140074189436        7.25540530715001        1.26320782183043
H           -0.66774476986295        4.89929377879691        0.83234222073140
H           -0.58502017229473        3.61788837078159       -1.33694065794282
H            0.96712214478979        1.72261584168445       -0.97964215127925
H            4.00179197094032        0.85868484728388       -0.07300674715606
H            6.44282811411307        1.04970114962143       -0.45395461623395
