  102
       -170.21753250
 C         10.3928139413       -2.8527647597       -2.7775287032
 C          9.0296792468       -3.0192271174       -2.6420778889
 C          8.3094183829       -2.2242050807       -1.7634819013
 C          8.9440232064       -1.2559733958       -0.9954112573
 C         10.3226151334       -1.0717679631       -1.1666930393
 C         11.0364025122       -1.8683369205       -2.0425722501
 O         11.0245615651       -0.0973810801       -0.5022735918
 C         10.3284045941        0.7005108988        0.3706865798
 C         11.0514603417        1.6641028584        1.0488675317
 C         10.4261807087        2.4884414929        1.9725742200
 C          9.0790710946        2.3267962949        2.2244673660
 C          8.3489654780        1.3626570218        1.5459826994
 C          8.9528603349        0.5514961394        0.5933760343
 N          8.2481865647       -0.4331796090       -0.1051487616
 C          6.8639847536       -0.6003510628        0.0958168449
 C          6.3681389595       -1.7983208994        0.6086345080
 C          5.0141578036       -1.9588619793        0.8095710550
 C          4.1303715426       -0.9227454895        0.5044554051
 C          2.7030608873       -1.0917123365        0.7277611066
 N          2.2760732899       -2.1970968837        1.3522857331
 N          1.0214305237       -2.4800215410        1.2868569797
 C          0.1360647095       -1.6474648443        0.7641828605
 C         -1.2339044928       -2.0998266808        0.5687242357
 C         -1.8046414989       -3.0044206236        1.4637472275
 C         -3.1369442418       -3.3460920751        1.3575003326
 C         -3.9192499162       -2.7985064496        0.3438216331
 N         -5.2991127305       -3.0737454471        0.2671757773
 C         -5.7690533981       -4.3677707026        0.0341319639
 C         -4.9136645929       -5.4471711010       -0.1451369669
 C         -5.4158452211       -6.7187823528       -0.3771293138
 C         -6.7779897234       -6.9298512058       -0.4428334562
 C         -7.6445529981       -5.8563613557       -0.2964273322
 C         -7.1495147888       -4.5860655344       -0.0693009998
 O         -8.0665963783       -3.5679860327        0.0270683578
 C         -7.5904359233       -2.3103917012        0.3028750533
 C         -8.5248808175       -1.3037970698        0.4596033778
 C         -8.1203528656       -0.0153505876        0.7773784716
 C         -6.7789392195        0.2520863814        0.9567698899
 C         -5.8368290389       -0.7520424402        0.7922816616
 C         -6.2226021015       -2.0392627125        0.4397067542
 C         -3.3345706260       -1.9492024708       -0.5937694282
 C         -2.0057108389       -1.6037583122       -0.4841370686
 C          0.5730498495       -0.3156475084        0.4990812515
 C         -0.3492437635        0.8063017726        0.3721902131
 C         -1.5340512847        0.8501103575        1.1105606747
 C         -2.4578151777        1.8451046616        0.8818504523
 C         -2.2185753980        2.8185702053       -0.0871836637
 N         -3.2094797390        3.7792237632       -0.3668806255
 C         -4.4481275470        3.3714230094       -0.8711041894
 C         -4.7019046907        2.0555753257       -1.2376323198
 C         -5.9403538977        1.6840287602       -1.7383721623
 C         -6.9415073366        2.6217534117       -1.8866977050
 C         -6.6926318567        3.9463898732       -1.5589427499
 C         -5.4567296924        4.3236947514       -1.0672984954
 O         -5.2701679723        5.6575196187       -0.8028833676
 C         -4.0315501428        6.0486965593       -0.3576597199
 C         -3.8471347741        7.3988056613       -0.1256453904
 C         -2.6349115582        7.8670628798        0.3597516548
 C         -1.6179709073        6.9732314420        0.6261160673
 C         -1.7961664267        5.6180227428        0.3919898502
 C         -2.9932602421        5.1372641992       -0.1223477841
 C         -1.0101729039        2.8157575428       -0.7793590248
 C         -0.0822730896        1.8217578295       -0.5453659055
 N          1.8709348824       -0.1114003047        0.3840440666
 C          4.6283562912        0.2744685297       -0.0109774136
 C          5.9820667271        0.4342162437       -0.2139723636
 H         10.9582317133       -3.4716515352       -3.4560779442
 H          8.5105911446       -3.7673492931       -3.2212668061
 H          7.2417393355       -2.3538426054       -1.6818273107
 H         12.0965892059       -1.6975428505       -2.1383755024
 H         12.1065450508        1.7488821070        0.8431916782
 H         10.9980870070        3.2388175412        2.4950790002
 H          8.5816777975        2.9450297640        2.9559982623
 H          7.3011082848        1.2347878690        1.7681738040
 H          7.0559085492       -2.5938535392        0.8547042768
 H          4.6190132903       -2.8772839842        1.2141159957
 H         -1.1937416128       -3.4039451835        2.2582696273
 H         -3.5871269300       -4.0185891870        2.0724539672
 H         -3.8466029948       -5.2919710017       -0.1135194075
 H         -4.7286678029       -7.5404329797       -0.5083841813
 H         -7.1737164103       -7.9178125008       -0.6173946042
 H         -8.7132037212       -5.9838618395       -0.3628124205
 H         -9.5668898755       -1.5510674207        0.3343694717
 H         -8.8552119834        0.7652056797        0.8929180563
 H         -6.4530976877        1.2454255160        1.2233884098
 H         -4.7911631586       -0.5326299324        0.9415516085
 H         -3.9370034625       -1.5565357644       -1.3995500399
 H         -1.5579675161       -0.9522620277       -1.2203508796
 H         -1.7215247706        0.1093473241        1.8735885006
 H         -3.3792253219        1.8745763267        1.4443681812
 H         -3.9245542682        1.3148739911       -1.1326488628
 H         -6.1151983316        0.6542870839       -2.0082435374
 H         -7.9096548159        2.3348740214       -2.2647778024
 H         -7.4459645143        4.7076958478       -1.6835761017
 H         -4.6692064225        8.0675467267       -0.3246003656
 H         -2.5000918793        8.9224181228        0.5361286172
 H         -0.6761529641        7.3194388759        1.0231329541
 H         -0.9999943155        4.9278299552        0.6229782231
 H         -0.8174563181        3.5805995872       -1.5169367935
 H          0.8451593600        1.7952387303       -1.0965233445
 H          3.9380150886        1.0691435298       -0.2469486232
 H          6.3703799044        1.3570651181       -0.6193684493
