102
 energy: -170.170058716578 gnorm: 0.000077177621 xtb: 6.7.1 (edcfbbe)
C           10.36327158994764        2.21912417779556        2.43268649381884
C            9.01218273863254        2.00837773634409        2.62197205600324
C            8.31491878190617        1.13989777418679        1.79660391764370
C            8.95693983392498        0.47512286342497        0.75872680340928
C           10.33585333160477        0.66943118217789        0.59743265037372
C           11.02579837798943        1.53866085888108        1.42222075824636
O           11.06577171729604        0.00813284431787       -0.35744723177211
C           10.39475595184471       -0.86375098276951       -1.17694154274243
C           11.14107451992923       -1.51877503397713       -2.13915303230644
C           10.52842543709533       -2.39048854992686       -3.02670269097986
C            9.16370329828677       -2.58584924728842       -2.95527778779628
C            8.41090395963671       -1.93366127289106       -1.99114873945253
C            9.01396274467381       -1.08217717740629       -1.07322543229947
N            8.28623311036205       -0.40736115726389       -0.09068124865412
C            6.89832305239489       -0.61705533261061        0.04423232569421
C            6.00845910165128        0.43739700202122       -0.15316541436930
C            4.65206092493353        0.23165710675855       -0.01919967206106
C            4.16138773796818       -1.03226841764380        0.30665896345854
C            2.72706009611036       -1.24631857120814        0.44402763802301
N            2.29941550766980       -2.45411921643192        0.82237954480116
N            1.02269222088537       -2.72165679735101        0.82228757309759
C            0.11032224295270       -1.80449860360272        0.60796124224348
C           -1.29704647115311       -2.19218634723104        0.51698460616936
C           -1.88652525997119       -2.98738951440289        1.49570683218577
C           -3.23666130666296       -3.27527356454924        1.44216534807963
C           -4.01334831908873       -2.78184240332243        0.39865964859193
N           -5.40594646243926       -3.00596607834723        0.36641190000462
C           -5.92791172242700       -4.29232903568297        0.23062839326629
C           -5.11664625132750       -5.41487161133946        0.11938882558917
C           -5.67027524714565       -6.67848969163056       -0.01580533773233
C           -7.04083107379274       -6.84055368069991       -0.05193434010744
C           -7.86389858462244       -5.72708697851493        0.02777925944032
C           -7.31764410434884       -4.46393188709288        0.15978212770688
O           -8.19292542525088       -3.40744078757867        0.19748796144984
C           -7.66420843052634       -2.15060132700053        0.34945760535078
C           -8.55648631811864       -1.09646994476175        0.41975143816827
C           -8.09681407887904        0.19804127873542        0.60989736155346
C           -6.74256428285035        0.42696283288481        0.74752852374768
C           -5.84295411184638       -0.62442641179516        0.66869413135146
C           -6.28449000373457       -1.92350313969434        0.44663382719681
C           -3.41314939810934       -2.04007244000929       -0.61700496972275
C           -2.06831943630265       -1.75009043593486       -0.55944885975859
C            0.54412588864371       -0.47112154369181        0.37226851810853
C           -0.35379442456744        0.64389423114973        0.25528433938398
C           -1.55999945976869        0.69919126031542        0.97526627991768
C           -2.45081793297305        1.72496938733778        0.77258064737468
C           -2.16749795431142        2.73391355003307       -0.14727461302072
N           -3.13852869165552        3.72971898336643       -0.41008375851096
C           -4.34682535250086        3.37128373442380       -1.00132257162716
C           -4.59437749050404        2.08102899732931       -1.45780914734603
C           -5.81224535964100        1.75447693645547       -2.03208843516544
C           -6.79924499278119        2.71066643738878       -2.16812920593898
C           -6.55765506700496        4.00993963027465       -1.74687972954744
C           -5.34275233872876        4.34353474412640       -1.17713272992684
O           -5.16083438743556        5.65262153435825       -0.80979566373849
C           -3.95219056867671        5.99448540852322       -0.25642905799468
C           -3.77360094244485        7.31860760202294        0.09823485805863
C           -2.58835245190583        7.72969747986869        0.69006184060089
C           -1.59218655444762        6.80537237809369        0.93713492294172
C           -1.76375710528787        5.47707192255627        0.58204525114346
C           -2.93525347726405        5.05352052441377       -0.03504413489162
C           -0.93998795693095        2.73622022811869       -0.80650009056740
C           -0.04135257923419        1.71483912152349       -0.59742791942499
N            1.88811368316927       -0.27271046589350        0.20806663460490
C            5.05330546139397       -2.08518616445502        0.50371913456063
C            6.41061101637341       -1.87972753773461        0.37628077404258
H           10.90883249581695        2.89743798364440        3.06936222222364
H            8.48671072609941        2.51483728207195        3.41682615154478
H            7.26332417028608        0.97138968230943        1.96705122261261
H           12.08430819953635        1.66412745513229        1.25966733670284
H           12.20143505177746       -1.32750179287569       -2.17992084326620
H           11.11882613395895       -2.89952858433291       -3.77195384661377
H            8.66939971801568       -3.24541650462458       -3.65171349190259
H            7.34319344234538       -2.08257405386380       -1.95772446511366
H            6.39220035452074        1.41188888765415       -0.41732760194818
H            3.95196298535945        1.03845455406080       -0.17091730148187
H           -1.28367159975411       -3.35054823053975        2.31403820420346
H           -3.70043502611399       -3.86424793322445        2.21961382548166
H           -4.04429487619743       -5.29918482027241        0.12865306391344
H           -5.01721701329665       -7.53369744483568       -0.09622618555744
H           -7.47588062410959       -7.82219803651289       -0.15268521240201
H           -8.93742742688981       -5.81696334875118       -0.01751794005801
H           -9.60907908493487       -1.31225160903228        0.32957412392511
H           -8.79841565996908        1.01526329993031        0.66027240965700
H           -6.37485632801001        1.42711860548874        0.91546841513774
H           -4.78757954050824       -0.43437418364325        0.78386003812948
H           -4.01458055439080       -1.68891932082866       -1.44242937333180
H           -1.60537424685256       -1.17602886413556       -1.34812841208227
H           -1.78081490820655       -0.05864906942402        1.71133803245965
H           -3.37959680944082        1.75950863613588        1.32394510350083
H           -3.82675542452638        1.32961671176523       -1.36081030031499
H           -5.98448176996770        0.74423656921053       -2.36943206865911
H           -7.75133960270513        2.45715061880723       -2.60621544624736
H           -7.30059014393513        4.78381520053650       -1.85576391934688
H           -4.57722311683258        8.01198096849427       -0.09171317616059
H           -2.45666970081910        8.76508431126802        0.96167402392023
H           -0.67208001846884        7.10969526305733        1.41181466196405
H           -0.98699707008971        4.75861896637826        0.79126773838733
H           -0.70961884806565        3.53378072154679       -1.49798840108835
H            0.90221797410850        1.70130529913339       -1.12075628365157
H            4.66132537782113       -3.05599573722741        0.76452519144043
H            7.10583179770061       -2.69041286601218        0.53753371713529
