  102
       -170.16482891
 C         10.3592898085        2.4464889737        2.1443352272
 C          9.0050625337        2.2632866676        2.3478111516
 C          8.3094551501        1.3075329163        1.6255039530
 C          8.9573599074        0.5228308355        0.6772562173
 C         10.3382468773        0.6975649830        0.4987560233
 C         11.0263810096        1.6544144483        1.2222503712
 O         11.0666442645       -0.0661769655       -0.3763652612
 C         10.3951169581       -1.0220291987       -1.0942375198
 C         11.1390238635       -1.7848052597       -1.9758514731
 C         10.5225177163       -2.7524110824       -2.7544603579
 C          9.1571537799       -2.9395078391       -2.6557763268
 C          8.4063020977       -2.1797952829       -1.7737736118
 C          9.0122760846       -1.2232721308       -0.9659759218
 N          8.2887987948       -0.4437761246       -0.0681667541
 C          6.8944714678       -0.6306938396        0.0852091190
 C          6.0072998915        0.3811180014       -0.2857161117
 C          4.6532018806        0.2034338450       -0.1342444201
 C          4.1459794811       -0.9976343856        0.3875983833
 C          2.7363129648       -1.1868901057        0.5381328228
 N          2.2679307383       -2.3818551932        1.0486143012
 N          1.0267658536       -2.6035640948        1.0683191761
 C          0.1005555600       -1.7610623468        0.6983813355
 C         -1.2775197821       -2.1673015796        0.5612552727
 C         -1.8556306985       -3.0759570603        1.4547406883
 C         -3.1987179712       -3.3759577934        1.3809540318
 C         -3.9936584127       -2.7883514737        0.3984307985
 N         -5.3873767800       -3.0191945456        0.3579588836
 C         -5.9003295195       -4.2814518864        0.0696833471
 C         -5.0803111604       -5.3775905144       -0.1727023541
 C         -5.6249687895       -6.6201209217       -0.4547491907
 C         -6.9949871237       -6.7872542874       -0.5087908030
 C         -7.8267833266       -5.6978443097       -0.2973132843
 C         -7.2896068842       -4.4548424939       -0.0175319048
 O         -8.1713537150       -3.4167783245        0.1484407583
 C         -7.6492607669       -2.1775336740        0.4177510770
 C         -8.5462807643       -1.1376191948        0.5813976952
 C         -8.0921625863        0.1360596618        0.8887593132
 C         -6.7385346578        0.3569835460        1.0496012900
 C         -5.8343855821       -0.6791759738        0.8807267750
 C         -6.2697735804       -1.9554002059        0.5400436932
 C         -3.4101154566       -1.9454517143       -0.5454240914
 C         -2.0726537032       -1.6371010815       -0.4662884319
 C          0.5796283073       -0.4004998889        0.3618616582
 C         -0.3247702038        0.7107868667        0.2313845840
 C         -1.5116517748        0.7689763598        0.9829991047
 C         -2.4134686493        1.7863391933        0.7877226558
 C         -2.1686627013        2.7728871816       -0.1671245878
 N         -3.1532551192        3.7541549601       -0.4213394935
 C         -4.4021385401        3.3684710175       -0.9051785065
 C         -4.6814275695        2.0576935568       -1.2776658550
 C         -5.9365305802        1.7060298574       -1.7471609639
 C         -6.9315576975        2.6568793396       -1.8607917929
 C         -6.6602360796        3.9751643719       -1.5266218726
 C         -5.4074881413        4.3337080488       -1.0631839418
 O         -5.2000005837        5.6602577677       -0.7840879347
 C         -3.9561351115        6.0276006400       -0.3362255220
 C         -3.7556612338        7.3690415591       -0.0678014740
 C         -2.5346744671        7.8093266883        0.4207319003
 C         -1.5248292163        6.8965811962        0.6548279433
 C         -1.7184990376        5.5512367091        0.3856003436
 C         -2.9259237318        5.0972673245       -0.1329847593
 C         -0.9637031832        2.7642812525       -0.8698494568
 C         -0.0500635373        1.7557527746       -0.6631877720
 N          1.8749840923       -0.2365491016        0.2337875112
 C          5.0462356021       -2.0090847810        0.7566476545
 C          6.4009257020       -1.8256329225        0.6096057057
 H         10.9028473844        3.1921415847        2.7025838543
 H          8.4774885572        2.8619063340        3.0742692865
 H          7.2554766706        1.1624826632        1.8018772145
 H         12.0857332160        1.7602217493        1.0514822366
 H         12.1997221410       -1.6020019246       -2.0404926385
 H         11.1103033244       -3.3449812632       -3.4374010485
 H          8.6630162896       -3.6783066982       -3.2675674930
 H          7.3392637661       -2.3241549441       -1.7138242009
 H          6.3980928320        1.3010785208       -0.6960842453
 H          3.9585483066        0.9786596169       -0.4179479745
 H         -1.2397520036       -3.5118110113        2.2265434812
 H         -3.6486796209       -4.0466368468        2.0982574233
 H         -4.0091417503       -5.2540205661       -0.1488145730
 H         -4.9662751163       -7.4554757039       -0.6353428083
 H         -7.4224490975       -7.7536147919       -0.7243019456
 H         -8.8997127755       -5.7904584292       -0.3513046447
 H         -9.5977907294       -1.3483273484        0.4691671766
 H         -8.7971075002        0.9428347651        1.0099729646
 H         -6.3757138861        1.3401280442        1.3058724987
 H         -4.7800157164       -0.4973666720        1.0157314149
 H         -4.0213484573       -1.5301065929       -1.3334954976
 H         -1.6262112896       -0.9964758203       -1.2117045474
 H         -1.7017455538        0.0266065585        1.7429829374
 H         -3.3242717450        1.8275065072        1.3675430839
 H         -3.9091511584        1.3089991760       -1.1996393134
 H         -6.1314262550        0.6807427131       -2.0214899324
 H         -7.9123950823        2.3839039820       -2.2160961598
 H         -7.4083233291        4.7456446849       -1.6233953741
 H         -4.5713418852        8.0524386578       -0.2418150840
 H         -2.3858960537        8.8579127316        0.6247068472
 H         -0.5763633566        7.2231186668        1.0527214964
 H         -0.9294713064        4.8444994410        0.5880325606
 H         -0.7652987005        3.5407045586       -1.5943332518
 H          0.8742139145        1.7326180841       -1.2198797586
 H          4.6517116217       -2.9267249588        1.1638895685
 H          7.0949783554       -2.6002577322        0.9020800376
