  61
        -75.89663121
 C         -4.3690323595        3.9612984668        0.0055384069
 C         -3.2649581282        2.9482306739       -0.0048094907
 C         -3.2539796777        1.8946818911        0.8960160874
 C         -2.2332742975        0.9568837976        0.9051069085
 C         -2.3057752549       -0.1597465527        1.9079777325
 C         -1.1617254069        1.0584913702        0.0015053238
 B          0.0025393178        0.0033164147        0.0000201167
 C          1.4995626020        0.4806330613       -0.0018893410
 C          2.4333377023       -0.0574329508       -0.9040114203
 C          2.0366356003       -1.1052726329       -1.9052585876
 C          3.7507774673        0.3733176242       -0.8950854495
 C          4.1967303080        1.3294180121        0.0042117383
 C          5.6210588267        1.7947735950       -0.0068902067
 C          3.2793386529        1.8584073780        0.8989481653
 C          1.9526051546        1.4572003161        0.9017930735
 C          1.0231029690        2.0866833100        1.9005799380
 C         -0.3322536055       -1.5320206950        0.0003926741
 C         -1.2678383584       -2.0728095834       -0.8992681090
 C         -1.9816076414       -1.2061965736       -1.8979301887
 C         -1.5503615235       -3.4289628990       -0.8904369550
 C         -0.9399864444       -4.2935650300        0.0063967923
 C         -1.2574931722       -5.7579437627       -0.0093589839
 C         -0.0229494114       -3.7628022222        0.8988052460
 C          0.2901411808       -2.4117167256        0.9017553354
 C          1.3014563254       -1.9214988460        1.8992282498
 C         -1.1704136202        2.1338775788       -0.9035507420
 C         -0.0646849210        2.3196604897       -1.9039300887
 C         -2.2117876024        3.0485819211       -0.9008441720
 H         -5.2968310452        3.5206433937        0.3639400226
 H         -4.1102705231        4.7877092785        0.6690362308
 H         -4.5318339345        4.3685019488       -0.9900192569
 H         -4.0655630974        1.7995846897        1.6050766708
 H         -1.3463991002       -0.3275017275        2.3900764866
 H         -2.5926424626       -1.0895432156        1.4184470308
 H         -3.0447964105        0.0638402819        2.6747439097
 H          2.8071423745       -1.2174741797       -2.6654133485
 H          1.9003076289       -2.0671441249       -1.4126798853
 H          1.0999620604       -0.8544891716       -2.3961893756
 H          4.4504690129       -0.0504339020       -1.6031358757
 H          5.9359924339        2.1050272113        0.9870699735
 H          6.2840079679        1.0072434604       -0.3586577212
 H          5.7286660766        2.6495152002       -0.6762033600
 H          3.6074194648        2.6052107068        1.6096402965
 H          0.4104438587        1.3413590847        2.4014516509
 H          1.5863089888        2.6346499397        2.6533724406
 H          0.3489905120        2.7829865184        1.4037535764
 H         -1.2991548137       -0.5189110409       -2.3909844042
 H         -2.7459750533       -0.6088841889       -1.4028283755
 H         -2.4653060281       -1.8180202851       -2.6566462381
 H         -2.2682840308       -3.8253231597       -1.5961089669
 H         -2.3311025634       -5.9179035455       -0.0929882381
 H         -0.7820753881       -6.2350188265       -0.8671045825
 H         -0.8982650719       -6.2446247808        0.8942540042
 H          0.4636577617       -4.4186549592        1.6083749121
 H          2.2456472284       -1.7001899793        1.4032790982
 H          0.9698739133       -1.0104273397        2.3905332626
 H          1.4847863324       -2.6779992254        2.6596609691
 H          0.8415704002        2.6638823854       -1.4076803541
 H         -0.3466690137        3.0583736762       -2.6514398148
 H          0.1751095240        1.3887036617       -2.4114420333
 H         -2.2022108193        3.8630319281       -1.6128889568
