  61
        -75.89663121
 C         -4.3690323595        3.9612984668        0.0055384069
 C         -3.2649581282        2.9482306739       -0.0048094907
 C         -3.2539796777        1.8946818911        0.8960160874
 C         -2.2332742975        0.9568837976        0.9051069085
 C         -2.3057752549       -0.1597465527        1.9079777325
 C         -1.1617254069        1.0584913702        0.0015053238
 B          0.0025393178        0.0033164147        0.0000201167
 C          1.4995626020        0.4806330613       -0.0018893410
 C          2.4333377023       -0.0574329508       -0.9040114203
 C          2.0366356003       -1.1052726329       -1.9052585876
 C          3.7507774673        0.3733176242       -0.8950854495
 C          4.1967303080        1.3294180121        0.0042117383
 C          5.6210588267        1.7947735950       -0.0068902067
 C          3.2793386529        1.8584073780        0.8989481653
 C          1.9526051546        1.4572003161        0.9017930735
 C          1.0231029690        2.0866833100        1.9005799380
 C         -0.3322536055       -1.5320206950        0.0003926741
 C         -1.2678383584       -2.0728095834       -0.8992681090
 C         -1.9816076414       -1.2061965736       -1.8979301887
 C         -1.5503615235       -3.4289628990       -0.8904369550
 C         -0.9399864444       -4.2935650300        0.0063967923
 C         -1.2574931722       -5.7579437627       -0.0093589839
 C         -0.0229494114       -3.7628022222        0.8988052460
 C          0.2901411808       -2.4117167256        0.9017553354
 C          1.3014563254       -1.9214988460        1.8992282498
 C         -1.1704136202        2.1338775788       -0.9035507420
 C         -0.0646849210        2.3196604897       -1.9039300887
 C         -2.2117876024        3.0485819211       -0.9008441720
 H         -5.2968310452        3.5206433937        0.3639400226
 H         -4.1102705231        4.7877092785        0.6690362308
 H         -4.5318339345        4.3685019488       -0.9900192569
 H         -4.0655630974        1.7995846897        1.6050766708
 H         -1.3463991002       -0.3275017275        2.3900764866
 H         -2.5926424626       -1.0895432156        1.4184470308
 H         -3.0447964105        0.0638402819        2.6747439097
 H          2.8071423745       -1.2174741797       -2.6654133485
 H          1.9003076289       -2.0671441249       -1.4126798853
 H          1.0999620604       -0.8544891716       -2.3961893756
 H          4.4504690129       -0.0504339020       -1.6031358757
 H          5.9359924339        2.1050272113        0.9870699735
 H          6.2840079679        1.0072434604       -0.3586577212
 H          5.7286660766        2.6495152002       -0.6762033600
 H          3.6074194648        2.6052107068        1.6096402965
 H          0.4104438587        1.3413590847        2.4014516509
 H          1.5863089888        2.6346499397        2.6533724406
 H          0.3489905120        2.7829865184        1.4037535764
 H         -1.2991548137       -0.5189110409       -2.3909844042
 H         -2.7459750533       -0.6088841889       -1.4028283755
 H         -2.4653060281       -1.8180202851       -2.6566462381
 H         -2.2682840308       -3.8253231597       -1.5961089669
 H         -2.3311025634       -5.9179035455       -0.0929882381
 H         -0.7820753881       -6.2350188265       -0.8671045825
 H         -0.8982650719       -6.2446247808        0.8942540042
 H          0.4636577617       -4.4186549592        1.6083749121
 H          2.2456472284       -1.7001899793        1.4032790982
 H          0.9698739133       -1.0104273397        2.3905332626
 H          1.4847863324       -2.6779992254        2.6596609691
 H          0.8415704002        2.6638823854       -1.4076803541
 H         -0.3466690137        3.0583736762       -2.6514398148
 H          0.1751095240        1.3887036617       -2.4114420333
 H         -2.2022108193        3.8630319281       -1.6128889568
  61
        -75.89654002
 C         -4.3255357595        4.0116918145        0.0491358883
 C         -3.2257976931        2.9939918525        0.0297393291
 C         -3.2340768473        1.9238847501        0.9118532632
 C         -2.2373752318        0.9612210442        0.8964015678
 C         -2.3328605890       -0.1732447975        1.8772529644
 C         -1.1698206616        1.0534108611       -0.0139195789
 B         -0.0105888284       -0.0080001908       -0.0185291472
 C          1.4850719616        0.4755087396       -0.0098354874
 C          2.4274127763       -0.0603209737       -0.9041469851
 C          2.0413401438       -1.1121648802       -1.9051687369
 C          3.7428704811        0.3767097488       -0.8885813119
 C          4.1780404307        1.3383846782        0.0096628794
 C          5.5995793843        1.8124335728        0.0098130020
 C          3.2519955826        1.8658643554        0.8965826582
 C          1.9274838305        1.4575764763        0.8934678744
 C          0.9909534979        2.0895458455        1.8842802324
 C         -0.3377370061       -1.5445830050       -0.0107725463
 C         -1.2663891105       -2.0989648755       -0.9089644921
 C         -1.9725223403       -1.2447214842       -1.9230644957
 C         -1.5352514694       -3.4588137148       -0.8949844813
 C         -0.9175875134       -4.3128268952        0.0051457728
 C         -1.2387301464       -5.7762150379        0.0315055495
 C         -0.0078731460       -3.7680527365        0.8983275467
 C          0.2913286628       -2.4148469297        0.8966922785
 C          1.2973191600       -1.9123741172        1.8937171544
 C         -1.1655437707        2.1379326611       -0.9074884985
 C         -0.0710141137        2.3045653725       -1.9227566734
 C         -2.1834880681        3.0787461605       -0.8795935744
 H         -5.1983566990        3.6290685733       -0.4814851317
 H         -4.6274659309        4.2344096019        1.0707163065
 H         -4.0113922604        4.9333387433       -0.4352790863
 H         -4.0414361165        1.8382496062        1.6269254605
 H         -1.3736358095       -0.3869162064        2.3398490133
 H         -2.6610474040       -1.0803082086        1.3717497678
 H         -3.0519764071        0.0588777637        2.6598331456
 H          1.9130457558       -2.0751210461       -1.4124608170
 H          1.1028597221       -0.8688716258       -2.3961728305
 H          2.8131208693       -1.2180371209       -2.6651056408
 H          4.4490557149       -0.0474798981       -1.5898739191
 H          5.9300400833        2.0452036536        1.0200106490
 H          6.2604946555        1.0598337208       -0.4141562701
 H          5.6903375166        2.7192367410       -0.5897992713
 H          3.5718543884        2.6170705169        1.6063681034
 H          0.3443660907        1.3524757691        2.3525845683
 H          1.5507936660        2.6045784463        2.6623443342
 H          0.3507968519        2.8175077150        1.3874370523
 H         -1.2610832081       -0.7215646823       -2.5593975331
 H         -2.5864669498       -0.4926115250       -1.4328521601
 H         -2.6126487102       -1.8543557170       -2.5570860682
 H         -2.2473415446       -3.8642645740       -1.6013490644
 H         -2.0120817372       -5.9747760785        0.7748363795
 H         -1.6063184373       -6.1114624704       -0.9356716456
 H         -0.3605647856       -6.3606086766        0.2984343156
 H          0.4840398270       -4.4176913947        1.6099897089
 H          2.2426054100       -1.6922213059        1.3994570549
 H          0.9612957970       -0.9984391330        2.3765727173
 H          1.4803548483       -2.6622748730        2.6606931249
 H          0.1354970054        1.3704457840       -2.4387153669
 H          0.8510443540        2.6229565594       -1.4387071815
 H         -0.3462370441        3.0550784190       -2.6610980561
 H         -2.1604953584        3.9027839381       -1.5802641945
  61
        -75.89643741
 C         -4.3463546656        4.0167746581       -0.0186718920
 C         -3.2570762531        2.9878456169       -0.0126652859
 C         -3.2567316114        1.9517313969        0.9076481099
 C         -2.2500004291        0.9986292293        0.9303183078
 C         -2.3169196182       -0.0778516158        1.9754380852
 C         -1.1800224550        1.0673193733        0.0206623316
 B         -0.0246330891        0.0030120756        0.0259968928
 C          1.4763022889        0.4713570718        0.0106988525
 C          2.4041972523       -0.0828466181       -0.8885813454
 C          2.0054365033       -1.1424253784       -1.8767652019
 C          3.7235770859        0.3411050093       -0.8894343509
 C          4.1786226442        1.3074449924       -0.0051376794
 C          5.6078292164        1.7569087744       -0.0322182235
 C          3.2678618459        1.8526973609        0.8855357961
 C          1.9391744036        1.4569230286        0.8992546699
 C          1.0182777514        2.1012105183        1.8962578560
 C         -0.3490272548       -1.5359236588        0.0185429524
 C         -1.2624051704       -2.0847621614       -0.8991126892
 C         -2.0072876290       -1.2160610739       -1.8727020037
 C         -1.4949639191       -3.4504977347       -0.9276299544
 C         -0.8577170802       -4.3161245624       -0.0510876001
 C         -1.1401815768       -5.7872876835       -0.0867949958
 C          0.0254715858       -3.7753133167        0.8697514338
 C          0.2881488437       -2.4146791770        0.9108750255
 C          1.2542982787       -1.9061095173        1.9425142723
 C         -1.1779777417        2.1268048981       -0.9040165344
 C         -0.0733953546        2.2833666922       -1.9108235660
 C         -2.2063163245        3.0556733318       -0.9147144307
 H         -4.0627322100        4.8631690111        0.6084812884
 H         -4.5224919924        4.3896594575       -1.0253932459
 H         -5.2732550502        3.6036331812        0.3730695685
 H         -4.0669228311        1.8813964007        1.6211314814
 H         -3.2775586322       -0.0562358926        2.4854093601
 H         -1.5363421889        0.0635806259        2.7230719711
 H         -2.1758006004       -1.0607177286        1.5339515062
 H          2.7458832229       -1.2200530687       -2.6704467630
 H          1.9344636486       -2.1110483259       -1.3831050175
 H          1.0382292140       -0.9321923432       -2.3241527056
 H          4.4189384431       -0.0958541458       -1.5937011774
 H          5.7663085518        2.4490372767       -0.8601857147
 H          5.8741639799        2.2653657577        0.8914208010
 H          6.2759316230        0.9094367988       -0.1742820069
 H          3.6013530614        2.6073226608        1.5853595834
 H          1.5871372495        2.6635331408        2.6339519495
 H          0.3359160652        2.7864813005        1.3954423996
 H          0.4159006217        1.3602613397        2.4154273667
 H         -2.7634729525       -0.6299529195       -1.3524227878
 H         -2.5043626386       -1.8253504582       -2.6246675105
 H         -1.3436326998       -0.5180331595       -2.3768056912
 H         -2.1933818115       -3.8533896007       -1.6488181441
 H         -0.3485458410       -6.3476228205        0.4052435771
 H         -2.0781793880       -6.0005555701        0.4274051133
 H         -1.2355120721       -6.1371216361       -1.1129340187
 H          0.5257961307       -4.4310012209        1.5698920876
 H          0.8733186436       -1.0140633218        2.4323095461
 H          1.4400256722       -2.6659059840        2.6989355811
 H          2.2047894243       -1.6471419937        1.4779922173
 H         -0.3584753178        2.9967426329       -2.6814233213
 H          0.1717394020        1.3382191219       -2.3879937967
 H          0.8308851432        2.6484073177       -1.4257367207
 H         -2.1886748032        3.8555916106       -1.6428864935
  61
        -75.89635489
 C         -4.3839243170        3.9692841018        0.0602326360
 C         -3.2812325725        2.9548818546        0.0342586990
 C         -3.2376172095        1.9061470740        0.9383117171
 C         -2.2168145529        0.9679932041        0.9150289089
 C         -2.2580973216       -0.1439989300        1.9251185957
 C         -1.1748246310        1.0653801539       -0.0239298953
 B         -0.0015878535        0.0200752829       -0.0302333544
 C          1.4989016296        0.4934845549       -0.0198866536
 C          2.4394064786       -0.0584065999       -0.9075140491
 C          2.0277682410       -1.0666547837       -1.9418576578
 C          3.7665676025        0.3399073995       -0.8670377686
 C          4.2148683675        1.2789497107        0.0483143874
 C          5.6565646258        1.6827391305        0.1085929203
 C          3.2883225750        1.8312755604        0.9199461002
 C          1.9525255662        1.4635555136        0.8916226084
 C          1.0127310461        2.1288994732        1.8565069146
 C         -0.3249181426       -1.5187438097       -0.0139063416
 C         -1.2528122267       -2.0723118461       -0.9140063001
 C         -1.9576617501       -1.2149603881       -1.9260779699
 C         -1.5269887857       -3.4296833101       -0.8980931119
 C         -0.9128325070       -4.2849134664        0.0055201552
 C         -1.2428920524       -5.7465310892        0.0188102348
 C         -0.0034418813       -3.7421446654        0.8982448823
 C          0.2996395620       -2.3883584060        0.8954710172
 C          1.3086703133       -1.8900375252        1.8913874318
 C         -1.2234764419        2.1307592233       -0.9410256526
 C         -0.1908201838        2.2860767722       -2.0202013134
 C         -2.2650712721        3.0444038825       -0.9050421684
 H         -3.9776182665        4.9653336393        0.2348953276
 H         -4.9066384260        3.9874673420       -0.8955871006
 H         -5.1022233248        3.7452107246        0.8451343394
 H         -4.0207302215        1.8146925949        1.6791487445
 H         -1.2926406350       -0.2883037669        2.4028929329
 H         -2.5275395035       -1.0825884447        1.4427797481
 H         -2.9967725775        0.0680375682        2.6955119922
 H          1.1424813961       -0.7354971841       -2.4788948086
 H          2.8293265066       -1.2258536399       -2.6599945587
 H          1.7923958858       -2.0206881005       -1.4735104306
 H          4.4696445664       -0.0946473015       -1.5650493223
 H          5.7500463770        2.7604934543        0.2296011985
 H          6.1425180992        1.2082186349        0.9619374947
 H          6.1835845078        1.3822739030       -0.7938813914
 H          3.6175096554        2.5728000701        1.6354499155
 H          0.3848239964        1.4047008545        2.3692805949
 H          1.5685970172        2.6939757719        2.6017913813
 H          0.3543850029        2.8156995674        1.3266654578
 H         -2.7017262638       -0.5860249632       -1.4394810414
 H         -2.4624116181       -1.8332126806       -2.6655985922
 H         -1.2590058153       -0.5600645435       -2.4401476271
 H         -2.2384999607       -3.8355884660       -1.6048698913
 H         -1.3108023175       -6.1351513181       -0.9956793856
 H         -0.4896876823       -6.3113404633        0.5630831869
 H         -2.2067462088       -5.9081607685        0.5029622854
 H          0.4874830941       -4.3906203300        1.6116846092
 H          2.2660471428       -1.7139254923        1.4021911425
 H          0.9969158751       -0.9534139191        2.3452794860
 H          1.4601025923       -2.6245636011        2.6799673555
 H          0.8028837043        2.0420743357       -1.6559634337
 H         -0.1879828042        3.3052195215       -2.4017159271
 H         -0.4161702614        1.6200860984       -2.8551978483
 H         -2.2839484025        3.8530316862       -1.6234521581
  61
        -75.89622802
 C         -4.4202118647        3.9189843618       -0.0663974074
 C         -3.2909742705        2.9343676213       -0.0480084625
 C         -3.2956233682        1.8750020367        0.8487560748
 C         -2.2651063606        0.9512807266        0.8866735245
 C         -2.3335661150       -0.1531907307        1.9027423250
 C         -1.1656893002        1.0690913991        0.0146430462
 B          0.0009278138        0.0136545469        0.0315039734
 C          1.5025467758        0.4780073346        0.0268352573
 C          2.4100616440       -0.0488554967       -0.9127873458
 C          1.9848883141       -1.0855505699       -1.9142937781
 C          3.7241521297        0.3850512183       -0.9444588151
 C          4.2011803839        1.3331036357       -0.0496315922
 C          5.6327835876        1.7735885293       -0.0925837562
 C          3.3181286409        1.8390954411        0.8873940287
 C          1.9907477055        1.4328227717        0.9328880123
 C          1.1334804124        2.0130709912        2.0213883723
 C         -0.3393805327       -1.5210535946        0.0192273969
 C         -1.2538447853       -2.0603123231       -0.9000321490
 C         -1.9671744029       -1.1930680985       -1.8988329926
 C         -1.5269005579       -3.4205904851       -0.9063921718
 C         -0.9276028351       -4.2859243226       -0.0062863771
 C         -1.2220814013       -5.7552222013       -0.0178255398
 C         -0.0333614599       -3.7537215922        0.9118642843
 C          0.2683279043       -2.4023121766        0.9306596230
 C          1.2456634461       -1.9016337361        1.9557252122
 C         -1.1567027076        2.1522446932       -0.8801270936
 C         -0.0193090461        2.3697512908       -1.8373163842
 C         -2.2102671536        3.0547037247       -0.9049593047
 H         -4.3211980975        4.6105973041       -0.8994554824
 H         -5.3758369225        3.4032205357       -0.1502738676
 H         -4.4334773664        4.4938254438        0.8597622965
 H         -4.1277594925        1.7696267279        1.5320335510
 H         -1.4167423642       -0.2052563158        2.4858831804
 H         -2.4679431995       -1.1163344678        1.4145509107
 H         -3.1672642139        0.0063296485        2.5830714653
 H          2.7420931723       -1.2009558308       -2.6874250365
 H          1.8468345645       -2.0489689001       -1.4250166920
 H          1.0430995560       -0.8229468670       -2.3893947318
 H          4.3992416292       -0.0242316653       -1.6841910861
 H          5.7692687043        2.7067617894        0.4490065412
 H          6.2712027580        1.0170426373        0.3653005192
 H          5.9632940093        1.9103001793       -1.1205938712
 H          3.6653179312        2.5742908314        1.6011182887
 H          0.0779197676        1.9423848216        1.7823992116
 H          1.3113941935        1.4802324174        2.9573345312
 H          1.3871180446        3.0588474834        2.1864180521
 H         -1.3129512743       -0.4314227460       -2.3132590723
 H         -2.8027656295       -0.6817914783       -1.4211144637
 H         -2.3610005084       -1.7962327749       -2.7145965425
 H         -2.2295567329       -3.8132078235       -1.6292598159
 H         -0.3400456817       -6.3137772797       -0.3317525748
 H         -1.4946079629       -6.0986482213        0.9791284872
 H         -2.0357817986       -5.9844957074       -0.7016412925
 H          0.4402726284       -4.4131557397        1.6268904669
 H          1.4065568160       -2.6510597909        2.7283527789
 H          2.2046773028       -1.6815702637        1.4877213193
 H          0.8907300894       -0.9874236733        2.4242593258
 H         -0.2951334005        3.0981782686       -2.5971484193
 H          0.2727950535        1.4472976823       -2.3322142738
 H          0.8527082714        2.7459237781       -1.3043321690
 H         -2.1837172044        3.8752913989       -1.6092872613
  61
        -75.89615512
 C         -4.4289094288        3.8940076446        0.0353804985
 C         -3.2920219441        2.9183638035        0.0054342453
 C         -3.2414956603        1.8675480694        0.9104488899
 C         -2.2085119497        0.9454012055        0.8978134595
 C         -2.2434194514       -0.1653798419        1.9090883517
 C         -1.1582354691        1.0588080108       -0.0323727697
 B          0.0209336232        0.0187228493       -0.0447012568
 C          1.5182380900        0.4992452305       -0.0336017728
 C          2.4541668792        0.0041231577       -0.9584779845
 C          2.0346308179       -0.9210010710       -2.0638384912
 C          3.7792889475        0.4097179992       -0.9079844470
 C          4.2304598433        1.2982826710        0.0546719439
 C          5.6725550029        1.6988894707        0.1258058319
 C          3.3079135195        1.7963764391        0.9625261485
 C          1.9739068599        1.4240038829        0.9237087167
 C          1.0371403593        2.0272498700        1.9313349217
 C         -0.3116082131       -1.5203410206       -0.0234100751
 C         -1.2571350456       -2.0674758045       -0.9084779285
 C         -1.9264014341       -1.2147494893       -1.9479535090
 C         -1.5776094830       -3.4148160535       -0.8567040332
 C         -0.9915993565       -4.2646729207        0.0684245842
 C         -1.3405604136       -5.7211958587        0.1139089185
 C         -0.0498590247       -3.7314608550        0.9348292913
 C          0.3007361673       -2.3908380006        0.8953138234
 C          1.3437787713       -1.9056978185        1.8614421743
 C         -1.2092982310        2.1287503304       -0.9421631636
 C         -0.1576831894        2.3098635521       -1.9986304217
 C         -2.2661829847        3.0278761238       -0.9174534411
 H         -5.3664209798        3.3891081249       -0.1973157981
 H         -4.5269046413        4.3346720792        1.0267602252
 H         -4.2773218803        4.6917518846       -0.6876673962
 H         -4.0327084998        1.7670027819        1.6413776516
 H         -2.9681359589        0.0543700386        2.6905022159
 H         -1.2718484047       -0.3174552452        2.3708311300
 H         -2.5299981063       -1.1018168614        1.4323236259
 H          1.4660306023       -0.3724351721       -2.8151873925
 H          2.9042414298       -1.3560880309       -2.5513268856
 H          1.4036731280       -1.7213249530       -1.6874312902
 H          4.4780976409        0.0201461285       -1.6360867320
 H          6.1521775339        1.6002556375       -0.8454218181
 H          5.7724489656        2.7271227024        0.4672657475
 H          6.2029043880        1.0579621581        0.8315173648
 H          3.6389815138        2.4985972144        1.7158339148
 H          0.5088370341        1.2600774073        2.4937425344
 H          1.5840874127        2.6512703138        2.6348404542
 H          0.2886295409        2.6411529213        1.4341695983
 H         -2.6814660467       -0.5776488859       -1.4895062720
 H         -2.4128639340       -1.8365615869       -2.6968021734
 H         -1.2060143454       -0.5706547234       -2.4447629645
 H         -2.3060285916       -3.8117714301       -1.5511235288
 H         -1.3128374455       -6.0939484836        1.1357606341
 H         -2.3308958965       -5.8969148662       -0.3001086807
 H         -0.6217340910       -6.2955563115       -0.4720494229
 H          0.4251385275       -4.3802858333        1.6583815759
 H          1.0422318923       -0.9820262703        2.3477498784
 H          1.5309283781       -2.6549761007        2.6279465008
 H          2.2790473204       -1.7105936923        1.3385511282
 H          0.8390735088        2.1801659056       -1.5870805327
 H         -0.2292999647        3.3000991117       -2.4432522994
 H         -0.2903173418        1.5760830236       -2.7944153986
 H         -2.2843187548        3.8380925370       -1.6340445253
  61
        -75.89590986
 C         -4.3239346959        4.0043035230       -0.0454684970
 C         -3.2350114571        2.9752868273       -0.0184065382
 C         -3.2258390847        1.9524694143        0.9130606188
 C         -2.2202901166        0.9945827265        0.9366779508
 C         -2.2840101528       -0.0469841998        2.0171868208
 C         -1.1633954718        1.0450387604        0.0131086728
 B         -0.0048754858       -0.0189462169        0.0031686216
 C          1.4910292423        0.4671579569       -0.0075268721
 C          2.4323176708       -0.0206144685       -0.9308820869
 C          2.0583231546       -0.9995569869       -2.0072269058
 C          3.7418941565        0.4363382184       -0.9110586182
 C          4.1751191263        1.3701117848        0.0166097801
 C          5.6012203944        1.8303360879        0.0295045930
 C          3.2519761999        1.8485396142        0.9330343194
 C          1.9337660959        1.4213583264        0.9265599958
 C          0.9991920112        1.9976354179        1.9520731868
 C         -0.3395134393       -1.5588014089        0.0027678070
 C         -1.2841355367       -2.0983104216       -0.8903180215
 C         -1.9970441794       -1.2270446643       -1.8843056858
 C         -1.5595890205       -3.4559620340       -0.8871708789
 C         -0.9330857074       -4.3239730834       -0.0049933309
 C         -1.2652399968       -5.7849954227       -0.0035310589
 C         -0.0093228539       -3.7948670222        0.8819758519
 C          0.2966635653       -2.4426312794        0.8928512790
 C          1.3048931060       -1.9475896695        1.8896097708
 C         -1.1713952556        2.0941808697       -0.9260306704
 C         -0.0823090855        2.2267490696       -1.9523055430
 C         -2.1940176510        3.0266141547       -0.9355000859
 H         -4.7679967904        4.0635711664       -1.0383323878
 H         -5.1045619096        3.7649180710        0.6725806634
 H         -3.9205746354        4.9874742227        0.1968499115
 H         -4.0244170986        1.8917932413        1.6403680930
 H         -1.7378827478        0.2942343550        2.8986202040
 H         -1.8487953204       -0.9865119636        1.6926464580
 H         -3.3157716516       -0.2205694969        2.3169538967
 H          2.9237332190       -1.5908100843       -2.2989853061
 H          1.2679614760       -1.6682543790       -1.6829090960
 H          1.7102184943       -0.4661643356       -2.8934791163
 H          4.4455013244        0.0498385790       -1.6362752904
 H          5.7283426730        2.6861722747        0.6880666747
 H          6.2522602774        1.0283209749        0.3785059484
 H          5.9237901250        2.1072363768       -0.9729799784
 H          3.5670615503        2.5764815580        1.6687165993
 H          0.3043812652        2.6927756205        1.4832745555
 H          0.4121577739        1.2191547937        2.4322065106
 H          1.5561736693        2.5341143197        2.7174039184
 H         -1.2965143358       -0.5978038206       -2.4276149699
 H         -2.7043548137       -0.5732538222       -1.3770466606
 H         -2.5445869239       -1.8353726297       -2.6005663288
 H         -2.2830899164       -3.8501747649       -1.5879692385
 H         -2.2056918082       -5.9537495286        0.5225222692
 H         -1.3811843510       -6.1552055472       -1.0203853797
 H         -0.4887977551       -6.3602073916        0.4953227608
 H          0.4894674533       -4.4538448114        1.5798525450
 H          0.9339197071       -1.0766928824        2.4241514624
 H          1.5392261595       -2.7254610449        2.6132791160
 H          2.2257833575       -1.6593450315        1.3852097293
 H          0.1446662828        1.2691864004       -2.4132807162
 H          0.8322440528        2.5940419477       -1.4880453079
 H         -0.3751229350        2.9276369733       -2.7313115385
 H         -2.1845302012        3.8163284350       -1.6748616044
  61
        -75.89577022
 C         -4.3326796797        4.0237042953        0.0398924953
 C         -3.2377324422        3.0010815541        0.0299978993
 C         -3.2707573236        1.9066217218        0.8795579498
 C         -2.2741805148        0.9430207259        0.8648371072
 C         -2.3871793235       -0.2073403919        1.8245705963
 C         -1.1807320995        1.0588732019       -0.0135868041
 B         -0.0173180251       -0.0036459137       -0.0151157418
 C          1.4813664861        0.4744340399        0.0000439740
 C          2.3993170303       -0.0333770313       -0.9383809594
 C          1.9806925028       -1.0521632602       -1.9597523022
 C          3.7131046901        0.4056325926       -0.9529927961
 C          4.1775563452        1.3410637344       -0.0409539646
 C          5.5996287107        1.8135743772       -0.0573399064
 C          3.2823104150        1.8302491972        0.8956147623
 C          1.9572965825        1.4179580827        0.9245546269
 C          1.0943260506        1.9910263299        2.0134175394
 C         -0.3403130806       -1.5416834688       -0.0146672195
 C         -1.2247991121       -2.1214934667       -0.9398222195
 C         -1.8680922428       -1.3152630881       -2.0316227504
 C         -1.4894267198       -3.4830760782       -0.9046528891
 C         -0.9105355661       -4.3131084000        0.0413637984
 C         -1.2343662484       -5.7755578416        0.0843607739
 C         -0.0406645104       -3.7435257735        0.9589570013
 C          0.2540757504       -2.3901583773        0.9373034373
 C          1.2158363221       -1.8566333296        1.9610440485
 C         -1.1530136830        2.1697202059       -0.8767767826
 C         -0.0410558667        2.3560120117       -1.8688219867
 C         -2.1702999798        3.1098555254       -0.8482192862
 H         -5.0805458410        3.7769032346       -0.7149473843
 H         -4.8277832913        4.0539662094        1.0078539720
 H         -3.9403210384        5.0125732610       -0.1882841973
 H         -4.0960501965        1.8005562355        1.5707443325
 H         -2.6228491507       -1.1250844876        1.2885908814
 H         -3.1775518391       -0.0217351267        2.5489315882
 H         -1.4564418310       -0.3699032774        2.3624930872
 H          1.0750175008       -0.7430327559       -2.4754875930
 H          2.7665344109       -1.1989590260       -2.6975924400
 H          1.7767548837       -2.0082300235       -1.4805736478
 H          4.3940199160        0.0080686343       -1.6936833145
 H          5.6396891692        2.8912577206       -0.2134033419
 H          6.0823839310        1.5985683691        0.8955309099
 H          6.1630565988        1.3269738488       -0.8497536862
 H          3.6214214597        2.5553108065        1.6235358263
 H          1.1763045060        3.0772405766        2.0239955995
 H          0.0509583998        1.7257234534        1.8881498276
 H          1.4333975125        1.6270675347        2.9844962821
 H         -2.0596029967       -0.2952543716       -1.7137685000
 H         -2.8065368043       -1.7720727590       -2.3395869641
 H         -1.2153021250       -1.2812809479       -2.9055065340
 H         -2.1679245997       -3.9061790472       -1.6333664848
 H         -0.4431710357       -6.3345947190        0.5788026799
 H         -2.1600434379       -5.9364085311        0.6386412087
 H         -1.3730198894       -6.1713588601       -0.9197269699
 H          0.4218055326       -4.3731744726        1.7073474963
 H          2.1732481302       -1.6275960475        1.4945746862
 H          0.8457137978       -0.9418019900        2.4163787829
 H          1.3855353674       -2.5922876820        2.7447518289
 H          0.8739307507        2.6568818045       -1.3616798819
 H         -0.3006729332        3.1265916077       -2.5916019600
 H          0.1659483733        1.4335642933       -2.4050767384
 H         -2.1283691262        3.9542395055       -1.5230988865
