  62
  -95.1338155800000       0.251690722065734      !
 C         -7.8215574033       -2.9414980076        0.1516496226
 C         -6.7197502131       -3.0816621991       -0.6802831072
 C         -5.7471440821       -2.1038247706       -0.7231353553
 C         -5.8666918302       -0.9648093925        0.0762096745
 N         -4.8853062106        0.0274091996        0.0376895998
 C         -5.1224850946        1.3864955810       -0.1043023685
 C         -6.3232625256        2.0600043853       -0.2679424976
 C         -6.2761303467        3.4369157467       -0.4251618430
 C         -5.0703941000        4.1246531169       -0.4303568904
 C         -3.8649031881        3.4498289255       -0.2977142631
 C         -3.8887186656        2.0755096372       -0.1409655691
 C         -2.8534366929        1.0768023318       -0.0103820707
 C         -1.4916749620        1.1539823313        0.0333870440
 C         -0.7019110319       -0.0391458778        0.1738008356
 C          0.7046127469        0.0011590407        0.1874806762
 C          1.4247626057        1.2437118753        0.3513329249
 C          2.7823531360        1.3308723511        0.3277426331
 C          3.5300500367        0.1597881967        0.1139227466
 C          2.8641473480       -1.0995054811        0.0075283509
 C          1.5025706815       -1.1868901354        0.0483216420
 C          3.9092449153       -2.0874950750       -0.1301922682
 C          3.8992543057       -3.4612991653       -0.2935054792
 C          5.1110842548       -4.1231063211       -0.4354973219
 C          6.3098883166       -3.4233583873       -0.4332081623
 C          6.3435741113       -2.0468151136       -0.2691987885
 C          5.1367613364       -1.3866177854       -0.0960092724
 N          4.8870064645       -0.0307887854        0.0540383099
 C          5.8544143149        0.9753115419        0.0802539802
 C          6.9753357951        0.8572954852        0.9055124132
 C          7.9264110553        1.8570593719        0.9235837861
 C          7.7757098928        2.9856631893        0.1305845794
 C          6.6599722642        3.1077160894       -0.6857485622
 C          5.7041184251        2.1132778312       -0.7159259598
 C         -1.4308189103       -1.2793698739        0.3115121472
 C         -2.7894775458       -1.3563941168        0.2848989736
 C         -3.5298274862       -0.1771943324        0.0901399733
 C         -6.9733734274       -0.8288614231        0.9176850227
 C         -7.9414031723       -1.8117937366        0.9482670753
 H         -8.5808116151       -3.7079576847        0.1800944066
 H         -6.6246035839       -3.9569006504       -1.3058437185
 H         -4.9024444823       -2.1971006114       -1.3891620780
 H         -7.2656639198        1.5346653749       -0.2883338864
 H         -7.1993040611        3.9830641756       -0.5503055411
 H         -5.0716098551        5.1975035613       -0.5520921356
 H         -2.9269164116        3.9834990497       -0.3228696049
 H         -1.0155527726        2.1142493640       -0.0713213717
 H          0.8634875191        2.1408055954        0.5531312477
 H          3.2790225345        2.2757104304        0.4928974775
 H          1.0326102658       -2.1500798750       -0.0590467029
 H          2.9669006364       -4.0048694843       -0.3164340470
 H          5.1226845468       -5.1952863979       -0.5625809921
 H          7.2379937238       -3.9592683214       -0.5661952872
 H          7.2803093865       -1.5114489922       -0.2919649484
 H          7.0752965410       -0.0062219972        1.5458807637
 H          8.7881447883        1.7620682453        1.5679292406
 H          8.5218914873        3.7653204944        0.1495022221
 H          6.5404119520        3.9820412033       -1.3084682640
 H          4.8483008816        2.1925910210       -1.3696182307
 H         -0.8760709089       -2.1845528903        0.4949980294
 H         -3.2921328303       -2.3009817558        0.4323324836
 H         -7.0491268257        0.0356699805        1.5600833238
 H         -8.7919932366       -1.7027274192        1.6049405245
  62
  -95.1338147700000       0.251475080858008      !
 C         -7.7829312035       -2.9769621107        0.2734872340
 C         -6.6966780927       -3.1089761662       -0.5800414796
 C         -5.7372724712       -2.1197830895       -0.6484044993
 C         -5.8545988914       -0.9772174623        0.1463317552
 N         -4.8855931365        0.0256195595        0.0820530377
 C         -5.1393794436        1.3813371262       -0.0629770109
 C         -6.3501234239        2.0420352877       -0.2034385705
 C         -6.3201743783        3.4183059788       -0.3708656193
 C         -5.1217369451        4.1176459218       -0.4082515290
 C         -3.9069317032        3.4554653591       -0.2986351586
 C         -3.9135334842        2.0820280359       -0.1325145618
 C         -2.8656014020        1.0941455073       -0.0215972327
 C         -1.5039987437        1.1844360555       -0.0134350919
 C         -0.7001817168       -0.0012891608        0.1068788948
 C          0.7058333433        0.0420041216        0.0711527553
 C          1.4334333300        1.2861678729        0.1755730131
 C          2.7921495423        1.3613310446        0.1677395902
 C          3.5343361087        0.1738174897        0.0450363773
 C          2.8576315337       -1.0734226283       -0.1195943678
 C          1.4950793308       -1.1480429003       -0.0987231079
 C          3.8936995489       -2.0629844334       -0.3050205582
 C          3.8724610429       -3.4337869939       -0.4902720031
 C          5.0802026535       -4.1084148365       -0.6018095531
 C          6.2871644624       -3.4288735787       -0.5107123076
 C          6.3319208639       -2.0553353410       -0.3257164387
 C          5.1270633538       -1.3744307058       -0.2447580307
 N          4.8893406289       -0.0244656932       -0.0346777814
 C          5.8680731340        0.9592156242        0.1180078067
 C          5.7913153103        1.8657644331        1.1781154462
 C          6.7563510031        2.8410400986        1.3231775343
 C          7.8085057475        2.9281043562        0.4226670918
 C          7.8867543160        2.0288734911       -0.6313095799
 C          6.9253951866        1.0517203294       -0.7898827841
 C         -1.4139209840       -1.2457397302        0.2846034731
 C         -2.7718150438       -1.3354288807        0.2950491727
 C         -3.5273454321       -0.1654851281        0.1033358276
 C         -6.9455919212       -0.8493383097        1.0093515556
 C         -7.9004613615       -1.8438585553        1.0656052607
 H         -8.5317664222       -3.7524653748        0.3221665997
 H         -6.6035269709       -3.9868118552       -1.2022404416
 H         -4.9050785205       -2.2068162314       -1.3307985163
 H         -7.2875141464        1.5074202395       -0.1988982231
 H         -7.2514303801        3.9546585935       -0.4787266737
 H         -5.1363247331        5.1897132636       -0.5369246190
 H         -2.9752761928        3.9981721530       -0.3488758488
 H         -1.0410551055        2.1495278797       -0.1310545279
 H          0.8781790652        2.2018169840        0.2909517122
 H          3.2924418902        2.3156191438        0.2414981455
 H          1.0155604626       -2.0981175759       -0.2649781811
 H          2.9351235795       -3.9665392532       -0.5416930564
 H          5.0830761507       -5.1778510817       -0.7503728836
 H          7.2133991869       -3.9796070187       -0.5819019754
 H          7.2764782303       -1.5417327121       -0.2332966714
 H          4.9861465472        1.7783542207        1.8921915530
 H          6.6938173873        3.5351196656        2.1482814752
 H          8.5616039828        3.6918818270        0.5407588969
 H          8.6989278896        2.0981719170       -1.3399402051
 H          6.9676680482        0.3718231738       -1.6275730363
 H         -0.8448310684       -2.1414468207        0.4709590845
 H         -3.2622792152       -2.2818223239        0.4703286130
 H         -7.0186695262        0.0179266932        1.6483786202
 H         -8.7382762809       -1.7415062496        1.7395500970
  62
  -95.1337716000000       0.240245575452667      !
 C         -7.7996234441       -2.9222136969       -0.5359093937
 C         -6.7176696193       -2.8427626805       -1.4009465609
 C         -5.7541592224       -1.8705355701       -1.2275894972
 C         -5.8630554308       -0.9593893668       -0.1745189521
 N         -4.8900807607        0.0257050299        0.0041709323
 C         -5.1386935535        1.3767119369        0.1942350729
 C         -6.3475249138        2.0546603231        0.2265064669
 C         -6.3130197284        3.4301539911        0.3986467854
 C         -5.1119332216        4.1144761475        0.5244831383
 C         -3.8992287397        3.4424560454        0.4619217416
 C         -3.9102891063        2.0697792679        0.2900447310
 C         -2.8658293780        1.0819161689        0.1475965390
 C         -1.5037555253        1.1626401746        0.1691674235
 C         -0.7036327334       -0.0243620404        0.0306942618
 C          0.7027270149        0.0212844900        0.0269219936
 C          1.4213192881        1.2682760045       -0.1073495888
 C          2.7792750081        1.3504512891       -0.1430619818
 C          3.5313579555        0.1671321686       -0.0411584283
 C          2.8658614608       -1.0831686525        0.1435473804
 C          1.5039066992       -1.1645225677        0.1693717975
 C          3.9112294947       -2.0698363526        0.2879561428
 C          3.9020153808       -3.4418822340        0.4650004878
 C          5.1155203505       -4.1124727006        0.5268904759
 C          6.3157198698       -3.4276032188        0.3957078028
 C          6.3484887312       -2.0527176749        0.2189657171
 C          5.1388171003       -1.3761990213        0.1871595374
 N          4.8889271446       -0.0263569284       -0.0082416139
 C          5.8621367372        0.9596872116       -0.1815804845
 C          6.9416261830        1.0471104473        0.7004612293
 C          7.9009459947        2.0227408558        0.5215722249
 C          7.7990993980        2.9246789546       -0.5280626473
 C          6.7244540752        2.8432332481       -1.4021813623
 C          5.7605432988        1.8698811961       -1.2361746581
 C         -1.4233652583       -1.2720661089       -0.0911124203
 C         -2.7814458561       -1.3534825213       -0.1236903090
 C         -3.5326103552       -0.1688196590       -0.0297299243
 C         -6.9495527001       -1.0453229282        0.6988306177
 C         -7.9086684375       -2.0196737498        0.5123494996
 H         -8.5518947200       -3.6829222637       -0.6768935465
 H         -6.6309441948       -3.5398739051       -2.2213024795
 H         -4.9254932556       -1.7888168281       -1.9148194513
 H         -7.2868443032        1.5371441523        0.1064867573
 H         -7.2426563333        3.9788378854        0.4310939631
 H         -5.1229311887        5.1854481746        0.6614563882
 H         -2.9656869864        3.9786374696        0.5405286365
 H         -1.0364822263        2.1175362623        0.3420671804
 H          0.8576315993        2.1800034906       -0.2117042772
 H          3.2719227138        2.3069764463       -0.2372811236
 H          1.0378124317       -2.1189113653        0.3478825292
 H          2.9692999759       -3.9787335519        0.5482951465
 H          5.1278633369       -5.1829717030        0.6673847788
 H          7.2459035485       -3.9755550529        0.4268478897
 H          7.2868335129       -1.5342842567        0.0948034757
 H          7.0025221892        0.3641303862        1.5345626703
 H          8.7300776560        2.0885095319        1.2105632580
 H          8.5513295269        3.6866885928       -0.6629129485
 H          6.6438804330        3.5395807630       -2.2239343975
 H          4.9377403140        1.7865806047       -1.9303067152
 H         -0.8604547411       -2.1853573437       -0.1875569887
 H         -3.2749824711       -2.3104091108       -0.2084917425
 H         -7.0165071250       -0.3621942899        1.5322181201
 H         -8.7436676580       -2.0838351303        1.1942907897
  62
  -95.1333469400000       0.153283417513162      !
 C         -7.7792447461       -2.9393195223        0.5579984640
 C         -6.7983845735       -3.0937561035       -0.4112567325
 C         -5.8424042163       -2.1165862464       -0.6008919828
 C         -5.8566338068       -0.9642334090        0.1878106143
 N         -4.8864132451        0.0244855924        0.0121815124
 C         -5.1364966590        1.3840251188       -0.0966741029
 C         -6.3479685768        2.0576457424       -0.1265464254
 C         -6.3175575204        3.4360649118       -0.2739162069
 C         -5.1187782642        4.1248179678       -0.4001126722
 C         -3.9061033028        3.4498631701       -0.4023927821
 C         -3.9131301163        2.0740734590       -0.2567821970
 C         -2.8693057583        1.0756922547       -0.2301071832
 C         -1.5084075901        1.1570947719       -0.2910707767
 C         -0.7034868827       -0.0310580377       -0.1899852037
 C          0.7025785418        0.0193906340       -0.1844080075
 C          1.4151844498        1.2671806713       -0.0270134547
 C          2.7711394374        1.3521629482        0.0486102532
 C          3.5299268491        0.1738798211       -0.0612750548
 C          2.8707069000       -1.0831876296       -0.2189546192
 C          1.5098667364       -1.1676805780       -0.2813311532
 C          3.9183812740       -2.0778099587       -0.2477432034
 C          3.9177894461       -3.4531397705       -0.3974122780
 C          5.1337493275       -4.1223142467       -0.4005095040
 C          6.3298152596       -3.4288448406       -0.2744539818
 C          6.3540778442       -2.0509675338       -0.1225081247
 C          5.1394859544       -1.3832425983       -0.0889822984
 N          4.8845082097       -0.0250809172        0.0215759343
 C          5.8518277315        0.9678692796        0.1907408775
 C          6.8392577307        0.8255978510        1.1684125615
 C          7.7900283571        1.8112542362        1.3370532011
 C          7.7705817641        2.9492741357        0.5433959259
 C          6.7883908350        3.0943247191       -0.4259975188
 C          5.8339193765        2.1140304374       -0.6066227931
 C         -1.4194251752       -1.2776884075       -0.0384792023
 C         -2.7759040644       -1.3595132838        0.0350947328
 C         -3.5323694770       -0.1794502049       -0.0729229428
 C         -6.8431500475       -0.8124422826        1.1651964472
 C         -7.7958714861       -1.7946559414        1.3423515603
 H         -8.5249910761       -3.7058931052        0.7023140888
 H         -6.7850591696       -3.9803417363       -1.0280336389
 H         -5.0939192759       -2.2223067668       -1.3718467732
 H         -7.2870533100        1.5312322855       -0.0505439925
 H         -7.2487141733        3.9827801382       -0.2942463161
 H         -5.1327924404        5.1988950750       -0.5099677826
 H         -2.9762522195        3.9848538283       -0.5214022296
 H         -1.0463377273        2.1196624733       -0.4313474484
 H          0.8471158889        2.1746496630        0.0905064972
 H          3.2558597500        2.3031714509        0.2133286896
 H          1.0494585429       -2.1313242368       -0.4199232987
 H          2.9904756706       -3.9928037757       -0.5151813949
 H          5.1523931405       -5.1960059673       -0.5132794543
 H          7.2633380334       -3.9713597785       -0.2978677113
 H          7.2903856450       -1.5196641923       -0.0463287732
 H          6.8335100376       -0.0461259542        1.8055854799
 H          8.5464791473        1.6980786736        2.0996727847
 H          8.5149078248        3.7184956803        0.6807786489
 H          6.7727301347        3.9760664465       -1.0495531997
 H          5.0836552811        2.2120599233       -1.3768837789
 H         -0.8538257538       -2.1870814816        0.0763631415
 H         -3.2621488711       -2.3102484272        0.1968483910
 H         -6.8349869339        0.0639615439        1.7959521653
 H         -8.5526067688       -1.6728356161        2.1034551306
  62
  -95.1329740400000       0.103305204110429      !
 C         -7.6936047964       -3.0432792371        0.2000046331
 C         -6.5044543953       -3.2051100218       -0.4975727217
 C         -5.5708164446       -2.1905354123       -0.5309404814
 C         -5.8155094060       -0.9913257934        0.1440079036
 N         -4.8651972582        0.0300301544        0.1195808816
 C         -5.1151303304        1.3643111383       -0.1680256018
 C         -6.3086460616        1.9863793372       -0.4990021793
 C         -6.2723940398        3.3423585598       -0.7921256466
 C         -5.0836811664        4.0574682043       -0.7648169129
 C         -3.8822971781        3.4317920847       -0.4610257777
 C         -3.8951207580        2.0790091020       -0.1687984570
 C         -2.8541264896        1.1232766678        0.1260975598
 C         -1.4967747460        1.2280064695        0.2330122818
 C         -0.7064492224        0.0545465902        0.4625763301
 C          0.7018800542        0.0852797114        0.4161357953
 C          1.4461140191        1.3123058861        0.5653045521
 C          2.8037077341        1.3727948560        0.4688604827
 C          3.5133351933        0.1923982651        0.1909481632
 C          2.8100082282       -1.0391715602        0.0071831646
 C          1.4536465533       -1.1041920991        0.1458026052
 C          3.8078579336       -2.0158980698       -0.3575545735
 C          3.7483682233       -3.3670503854       -0.6513412920
 C          4.9273339395       -4.0322240533       -0.9586538640
 C          6.1441719346       -3.3651977664       -0.9539159786
 C          6.2268834169       -2.0116307846       -0.6597022591
 C          5.0479402799       -1.3380557082       -0.3814754646
 N          4.8504207385       -0.0074105077       -0.0421520361
 C          5.8599795981        0.9464616467        0.1009520239
 C          5.9191119093        1.7374791699        1.2509341473
 C          6.9260955693        2.6693272310        1.3955749650
 C          7.8836463862        2.8293661380        0.4037246093
 C          7.8216418992        2.0508106342       -0.7433703211
 C          6.8185225314        1.1164101067       -0.9006723195
 C         -1.4184894360       -1.1768985954        0.7109662677
 C         -2.7745112036       -1.2755115254        0.6476802848
 C         -3.5142681079       -0.1346192246        0.2918717015
 C         -7.0119759544       -0.8321089161        0.8479995518
 C         -7.9404384577       -1.8526436440        0.8687728627
 H         -8.4216317797       -3.8394892381        0.2228033123
 H         -6.3098897294       -4.1270271942       -1.0255927017
 H         -4.6580838167       -2.3019337460       -1.0968862601
 H         -7.2361488105        1.4371863485       -0.5485452108
 H         -7.1906180535        3.8476836938       -1.0525607678
 H         -5.0927843202        5.1119463000       -0.9970802842
 H         -2.9551279192        3.9842855205       -0.4623478828
 H         -1.0196053526        2.1814528555        0.0769480291
 H          0.9049532010        2.2146118919        0.7997907161
 H          3.3256757808        2.3109739757        0.5872299831
 H          0.9411138892       -2.0352019693       -0.0334789673
 H          2.8045607368       -3.8905445388       -0.6400648045
 H          4.8998652839       -5.0851041039       -1.1966575204
 H          7.0490205178       -3.9090484246       -1.1813753140
 H          7.1816928783       -1.5093981987       -0.6375398560
 H          5.1869979197        1.5922518505        2.0313257984
 H          6.9721501859        3.2710428734        2.2913233707
 H          8.6715169488        3.5570864596        0.5231853146
 H          8.5571945796        2.1804725617       -1.5236053044
 H          6.7512778896        0.5303863353       -1.8050534255
 H         -0.8504772435       -2.0399150312        1.0193859950
 H         -3.2753430359       -2.2031686670        0.8826528261
 H         -7.1888432966        0.0808367205        1.3965276360
 H         -8.8606825614       -1.7253018059        1.4197562643
