  55
        -80.21173099
 C         -5.2793816539        0.0955928957       -0.8794607421
 C         -3.7642546199       -0.0982370848       -0.8633842028
 C         -3.2949121214       -0.3632075466       -2.3096166540
 C         -3.3312779565       -1.2681697299       -0.0039006965
 C         -4.1869964986       -2.2588704899        0.4505454320
 C         -3.7157661553       -3.3230524219        1.2004146749
 C         -2.3737879144       -3.3951414128        1.5298315636
 C         -1.5069439193       -2.4078950814        1.1059674916
 C         -1.9725777597       -1.3560415553        0.3203321059
 N         -1.1225808957       -0.3165880920       -0.0661229771
 C          0.2431193431       -0.4865136033       -0.2099659178
 C          0.6810229678       -1.7180309142       -0.7543881639
 C          2.0024612626       -1.9762868482       -0.9168597861
 C          2.9646068433       -1.0304365877       -0.5008632014
 C          4.3303955105       -1.3367329787       -0.5942438875
 C          5.2869674206       -0.4427904283       -0.1655109248
 C          6.6589589288       -0.7524664094       -0.2584502883
 N          7.7780254598       -0.9978918993       -0.3319741874
 C          4.8777991539        0.7900435151        0.3860172086
 C          3.5538482521        1.1078508357        0.4639680187
 C          2.5351669479        0.2297908798        0.0114871356
 C          1.1448726186        0.5237594591        0.0880348448
 C          0.6367074428        1.8944546488        0.5161042639
 C          1.3655520089        3.0099706406       -0.2762570767
 C          0.8135808031        2.0413853120        2.0417627350
 C         -0.8535020397        2.0501063303        0.2562029983
 C         -1.4513476028        3.2984678706        0.3716014623
 C         -2.8061764962        3.4586872027        0.1576634033
 C         -3.5856789086        2.3788830411       -0.2223084655
 C         -3.0230408238        1.1220783420       -0.3515254558
 C         -1.6628432538        0.9656149648       -0.0569539545
 H         -5.5425270392        0.9328577511       -1.5206159842
 H         -5.6595507271        0.2816753433        0.1224338626
 H         -5.7667076985       -0.7867176053       -1.2863056635
 H         -3.5547051236        0.4807655543       -2.9451249227
 H         -2.2183830247       -0.5056261837       -2.3520622843
 H         -3.7772983637       -1.2575177647       -2.6986313188
 H         -5.2383735763       -2.2151103821        0.2179972795
 H         -4.3987980816       -4.0896591909        1.5326575477
 H         -2.0018586446       -4.2108221678        2.1310955748
 H         -0.4666444766       -2.4412878380        1.3935060035
 H         -0.0635773391       -2.4369295293       -1.0607958277
 H          2.3351237957       -2.9058665288       -1.3537912066
 H          4.6260971767       -2.2938415243       -1.0001226191
 H          5.6285761812        1.4774432768        0.7474125914
 H          3.2933126896        2.0532436698        0.9026707370
 H          2.1490809202        2.6019742123       -0.9068099183
 H          0.6658436671        3.5198145413       -0.9341932384
 H          1.8024998815        3.7516711834        0.3880463952
 H          0.4881297527        3.0272548611        2.3649607269
 H          0.1989215367        1.2987305812        2.5485827412
 H          1.8428058458        1.8909461390        2.3519216424
 H         -0.8561762187        4.1552057933        0.6474134932
 H         -3.2569332230        4.4329009855        0.2700304758
 H         -4.6334266355        2.5347734124       -0.4181194481
  55
        -80.21144662
 C         -5.2204363274        0.0957201988       -1.0586967283
 C         -3.7113770064       -0.1055220539       -0.9391989140
 C         -3.1496267196       -0.3910935478       -2.3483271289
 C         -3.3389753580       -1.2636857226       -0.0369547892
 C         -4.2282458222       -2.2336150891        0.3964693713
 C         -3.8063701445       -3.2839885811        1.1939234580
 C         -2.4826817984       -3.3634398290        1.5896894554
 C         -1.5834008767       -2.3965660208        1.1859395599
 C         -1.9990762247       -1.3575286460        0.3569715982
 N         -1.1224742587       -0.3317501186       -0.0053712133
 C          0.2431350072       -0.5132713369       -0.1244527237
 C          0.6808696915       -1.7574804519       -0.6391130898
 C          2.0009555622       -2.0086325959       -0.8226927201
 C          2.9634104157       -1.0441004979       -0.4536929050
 C          4.3291824128       -1.3257191899       -0.6078363343
 C          5.2875608330       -0.4115799224       -0.2281808924
 C          6.6591157471       -0.6864310152       -0.4024326661
 N          7.7728780682       -0.9017249941       -0.5799748186
 C          4.8812931775        0.8059329273        0.3585904871
 C          3.5567165984        1.0981289175        0.4984365501
 C          2.5348101571        0.2132728403        0.0664532646
 C          1.1446319200        0.5024287778        0.1581477639
 C          0.6362199388        1.8763110548        0.5800882919
 C          1.3744595446        2.9935262751       -0.2016416944
 C          0.8024394094        2.0207127038        2.1068197940
 C         -0.8499075373        2.0361740114        0.2994875577
 C         -1.4509973603        3.2843317125        0.4012128396
 C         -2.7971294142        3.4473097173        0.1386617535
 C         -3.5623526682        2.3726096179       -0.2834863599
 C         -2.9972897932        1.1152444665       -0.3919641113
 C         -1.6526286089        0.9540622560       -0.0358463290
 H         -5.4335644403        0.9273938527       -1.7254907915
 H         -5.6667703676        0.2956968948       -0.0873242125
 H         -5.6839681842       -0.7892695178       -1.4873028798
 H         -3.3618519751        0.4463436315       -3.0096107267
 H         -2.0737193316       -0.5405872278       -2.3200934060
 H         -3.6116798930       -1.2872471524       -2.7573479986
 H         -5.2662086513       -2.1832632211        0.1106307878
 H         -4.5140810542       -4.0344936220        1.5110611027
 H         -2.1511058192       -4.1695336914        2.2265002850
 H         -0.5576487573       -2.4351700781        1.5216669973
 H         -0.0631846215       -2.4890255421       -0.9152167496
 H          2.3321387264       -2.9448955046       -1.2463180114
 H          4.6235942206       -2.2775922320       -1.0267856730
 H          5.6350013319        1.5016777235        0.6972043243
 H          3.2979875751        2.0279908795        0.9699701441
 H          2.1322541585        2.5814648838       -0.8604419905
 H          0.6739663859        3.5374063522       -0.8304673691
 H          1.8449856916        3.7079817934        0.4696940213
 H          1.8302087679        1.8660787222        2.4212788196
 H          0.4788830721        3.0073378368        2.4297889188
 H          0.1824593042        1.2794384302        2.6091221277
 H         -0.8658023084        4.1394676907        0.7025801032
 H         -3.2507140292        4.4211962894        0.2421903782
 H         -4.6003640261        2.5315452758       -0.5241538713
  55
        -80.21119353
 C         -5.2979542915        0.0924739684       -0.8058456067
 C         -3.7837616826       -0.1087046638       -0.8417542408
 C         -3.3710185396       -0.4268854906       -2.2942384027
 C         -3.3257335636       -1.2554652020        0.0374743453
 C         -4.1681138329       -2.2257736691        0.5560948221
 C         -3.6717827683       -3.2777434237        1.3076067544
 C         -2.3149223752       -3.3649019092        1.5641295930
 C         -1.4595606178       -2.3961136043        1.0788651135
 C         -1.9552469917       -1.3481960756        0.3068870929
 N         -1.1207607026       -0.3118302607       -0.1139360281
 C          0.2454694396       -0.4747208631       -0.2685380454
 C          0.6834801396       -1.6772077587       -0.8725773778
 C          2.0055204734       -1.9161580779       -1.0622218655
 C          2.9652861884       -0.9993546151       -0.5798748718
 C          4.3323924609       -1.2978101930       -0.6815036346
 C          5.2823500347       -0.4520363290       -0.1519516482
 C          6.6554094469       -0.7570763551       -0.2473713321
 N          7.7806293919       -0.9701046461       -0.3336136774
 C          4.8659181423        0.7172537769        0.5201442603
 C          3.5420405253        1.0360322888        0.5959458283
 C          2.5329172356        0.2185462691        0.0241887505
 C          1.1440006937        0.5206132456        0.0814955429
 C          0.6230024958        1.8716174061        0.5529533371
 C          1.4098075164        3.0240905487       -0.1177174978
 C          0.6960167985        1.9239495473        2.0938790432
 C         -0.8490751622        2.0526309071        0.2126853771
 C         -1.4368107912        3.3082220461        0.2877071699
 C         -2.7846086938        3.4758550118        0.0351719875
 C         -3.5718500300        2.3918187740       -0.3138285748
 C         -3.0214285584        1.1251069840       -0.3960734748
 C         -1.6618195001        0.9700563789       -0.1023204458
 H         -5.5850318462        0.9017587695       -1.4720434005
 H         -5.6359141452        0.3247641468        0.2015853119
 H         -5.8046011866       -0.8041933457       -1.1532234552
 H         -3.6593012257        0.3911515827       -2.9509599134
 H         -2.2962562413       -0.5677124734       -2.3732942170
 H         -3.8647232414       -1.3368964613       -2.6291661578
 H         -5.2293911026       -2.1757812204        0.3755481163
 H         -4.3466416667       -4.0256119922        1.6948097866
 H         -1.9218233694       -4.1760283170        2.1581333459
 H         -0.4056484866       -2.4378985775        1.3104381074
 H         -0.0616101378       -2.3839099333       -1.2059128514
 H          2.3408913827       -2.8139680079       -1.5593676511
 H          4.6342055397       -2.2144350266       -1.1682888763
 H          5.6103123721        1.3529163526        0.9767693757
 H          3.2707801498        1.9253112325        1.1357567547
 H          0.7864927598        3.5195547866       -0.8583689200
 H          1.7237512118        3.7657922969        0.6130301865
 H          2.2869400376        2.6611508374       -0.6422112352
 H          0.0517927933        1.1509498255        2.5110752616
 H          1.7032400874        1.7551404643        2.4625270288
 H          0.3443920255        2.8881732307        2.4538866960
 H         -0.8436108349        4.1654885036        0.5649658420
 H         -3.2257870844        4.4584229053        0.1054872968
 H         -4.6167757203        2.5515820352       -0.5212386119
  55
        -80.21039845
 C         -5.2990596774        0.1027281532       -0.8211112097
 C         -3.7833601383       -0.0862550126       -0.8347950783
 C         -3.3380085452       -0.3124479183       -2.2950525896
 C         -3.3319633673       -1.2741402467       -0.0108503189
 C         -4.1783367684       -2.2729163909        0.4436761762
 C         -3.6927153150       -3.3474386055        1.1689841709
 C         -2.3452305206       -3.4206903186        1.4743665180
 C         -1.4876025710       -2.4260423827        1.0493625848
 C         -1.9673130460       -1.3643406491        0.2855599677
 N         -1.1261874240       -0.3176195123       -0.1061730134
 C          0.2413633125       -0.4836299803       -0.2401791722
 C          0.6855745469       -1.7104262076       -0.7912952764
 C          2.0084067343       -1.9701537259       -0.9397508652
 C          2.9670211298       -1.0345630948       -0.4929502610
 C          4.3334018976       -1.3430492651       -0.5642859281
 C          5.2833826021       -0.4565086484       -0.1058986499
 C          6.6559244171       -0.7695782440       -0.1776813315
 N          7.7749099666       -1.0214218986       -0.2314335582
 C          4.8669902992        0.7689624254        0.4563900598
 C          3.5423053337        1.0889052710        0.5140607697
 C          2.5322089691        0.2206782830        0.0258486390
 C          1.1420143148        0.5206407146        0.0779277638
 C          0.6476446178        1.9140505585        0.4399463631
 C          1.2473740556        2.9075053262       -0.5822517043
 C          1.0112835037        2.2725989809        1.9029887157
 C         -0.8587997456        2.0433427490        0.2836211761
 C         -1.4632145735        3.2817688408        0.4588950077
 C         -2.8237697124        3.4399683619        0.2850991196
 C         -3.6045064171        2.3690975057       -0.1168589297
 C         -3.0367361002        1.1216340393       -0.3014870828
 C         -1.6683417606        0.9635160655       -0.0465173351
 H         -5.5749642227        0.9554740053       -1.4361002269
 H         -5.6634996160        0.2618386364        0.1911983424
 H         -5.7902269866       -0.7707268192       -1.2424408444
 H         -3.6115146231        0.5463553972       -2.9044487211
 H         -2.2619921982       -0.4501605801       -2.3594394051
 H         -3.8243716410       -1.1983836212       -2.6981825196
 H         -5.2337366107       -2.2264829808        0.2306443671
 H         -4.3685038758       -4.1202973525        1.5013559793
 H         -1.9611043340       -4.2434262457        2.0581000004
 H         -0.4433909005       -2.4617835452        1.3215682693
 H         -0.0562757020       -2.4230367002       -1.1186389001
 H          2.3442391465       -2.8935307341       -1.3874366729
 H          4.6352214112       -2.2959341040       -0.9757028231
 H          5.6124121580        1.4479360538        0.8439975536
 H          3.2721273343        2.0205436374        0.9761201041
 H          2.3166072244        2.7801758232       -0.7047826488
 H          0.7802826795        2.7443670848       -1.5523555961
 H          1.0536120768        3.9331578620       -0.2825677420
 H          1.5593174952        1.4642333574        2.3803640630
 H          1.6092530661        3.1794995241        1.9550667563
 H          0.1055454577        2.4395672923        2.4826458774
 H         -0.8677680519        4.1316653817        0.7534317484
 H         -3.2777303192        4.4066142734        0.4410856113
 H         -4.6571376470        2.5238773061       -0.2853348892
  55
        -80.20805334
 C         -5.0735020255        0.1370706598       -1.2844611376
 C         -3.5845709916       -0.1217162016       -1.0583889511
 C         -2.9595331580       -0.5818100923       -2.3929386799
 C         -3.3293557330       -1.2105123120       -0.0329081879
 C         -4.2802184740       -2.1329493872        0.3738284692
 C         -3.9590079533       -3.1545675598        1.2523280905
 C         -2.6727480672       -3.2625733177        1.7508260460
 C         -1.7143497449       -2.3406528956        1.3802087404
 C         -2.0329538363       -1.3236568468        0.4837174272
 N         -1.1008703566       -0.3350116942        0.1781807289
 C          0.2637813570       -0.5411651596        0.0715594927
 C          0.6955407936       -1.7986683275       -0.3987780077
 C          2.0189964773       -2.0414287627       -0.5759275778
 C          2.9582342147       -1.0057883442       -0.3909516786
 C          4.3149480123       -1.2712889745       -0.6338625623
 C          5.2635093644       -0.2783456382       -0.5362210541
 C          6.6263514250       -0.5518062006       -0.7696800640
 N          7.7383301351       -0.7691128158       -0.9551917017
 C          4.8438429334        1.0324279430       -0.2289081213
 C          3.5305825681        1.2999843549        0.0255475663
 C          2.5254699425        0.2991279297        0.0105812446
 C          1.1549622651        0.5003229036        0.3335647208
 C          0.5113562470        1.6789695203        1.0707917793
 C          1.3429445407        2.9359175285        1.3154843046
 C          0.1297101331        1.1516609001        2.4772044844
 C         -0.7741897776        2.0226834249        0.3376719547
 C         -1.2323724426        3.3042906408        0.0784168865
 C         -2.4835403888        3.4960483967       -0.4819208875
 C         -3.2888490630        2.4195600494       -0.8112106548
 C         -2.8419250975        1.1237421187       -0.6123816921
 C         -1.5842568403        0.9517591839       -0.0346081667
 H         -5.2108149845        0.8977716467       -2.0480894967
 H         -5.5541465850        0.4661524871       -0.3659067300
 H         -5.5641187360       -0.7650463853       -1.6400793266
 H         -3.0975479769        0.1846191466       -3.1525745389
 H         -1.8938426322       -0.7650996261       -2.2811087612
 H         -3.4350518965       -1.5006551258       -2.7298759218
 H         -5.2900419986       -2.0712325978        0.0026112951
 H         -4.7159452252       -3.8653374973        1.5464579976
 H         -2.4180612188       -4.0529370777        2.4404741231
 H         -0.7160216442       -2.3959301773        1.7893928545
 H         -0.0419635400       -2.5586403017       -0.6065685599
 H          2.3662925649       -3.0124333820       -0.8957728402
 H          4.6073920811       -2.2736588351       -0.9135500440
 H          5.5757114612        1.8266278788       -0.2085146861
 H          3.2701029868        2.3232202414        0.2015137744
 H          1.6101921213        3.4348711744        0.3874246483
 H          0.7516489227        3.6283220071        1.9123535040
 H          2.2323835365        2.7000654693        1.8925460455
 H          1.0314536902        0.8766923627        3.0211459020
 H         -0.3895503062        1.9294224367        3.0332936252
 H         -0.5189621829        0.2834191378        2.4275497944
 H         -0.6375373493        4.1682282630        0.3234750606
 H         -2.8375362673        4.5000169500       -0.6609682007
 H         -4.2591967426        2.6070164777       -1.2403342267
