  70
  -96.9708326400000       0.570927999257487      !
 C         -5.3128646324        0.8563024236       -0.6462679907
 C         -5.1192461178       -0.3253130921        0.3160603572
 C         -6.2798108610       -1.3192739631        0.1640105971
 C         -5.1355079669        0.2198810424        1.7464288419
 C         -3.8136738378       -1.0124526328       -0.0336365477
 C         -3.6483555313       -1.5649702517       -1.3175912783
 C         -2.4712865076       -2.1518520264       -1.7051106329
 C         -1.3912267914       -2.1978217969       -0.8178706653
 O         -0.2109156315       -2.6600927578       -1.2649353204
 C          0.9128521280       -2.2044270171       -0.6752691860
 C          2.0648243757       -2.9695554537       -0.7395767562
 C          3.1951774737       -2.6004101382       -0.0406601237
 C          3.1962853622       -1.4339510951        0.7974940920
 C          4.4655437978       -1.0811825525        1.5464439630
 C          5.5768692115       -0.8250689988        0.5182120431
 C          4.8567638006       -2.2512405250        2.4625514329
 C          4.3177458431        0.1736705768        2.4107928893
 C          2.0734784052       -0.6607086630        0.8436814517
 C          0.9389813902       -0.9134998053        0.0191783643
 P          0.1767191536        0.4936888262       -0.8265714039
 O         -0.6033914767        0.1488563022       -2.0241337502
 C         -0.8128445523        1.4074781791        0.4126068509
 C         -0.7518308859        1.2389626141        1.7863633920
 C         -1.5514045325        2.0153735371        2.6085295614
 C         -2.4086776794        2.9562344028        2.0622197072
 C         -2.4684151361        3.1259434770        0.6880950297
 C         -1.6687677118        2.3525240586       -0.1339341462
 C          1.5539835689        1.6241428516       -1.1767808935
 C          2.1214740253        2.4551653325       -0.2117889199
 C          3.2859785348        3.1410893903       -0.4962578706
 C          3.8983468610        3.0008389085       -1.7326530449
 C          3.3334194297        2.1743863011       -2.6963921551
 C          2.1739137653        1.4826937656       -2.4163001083
 C         -1.5680898773       -1.7368710392        0.4999816903
 C         -2.7642967792       -1.1422504667        0.8635403050
 H         -4.4699443467        1.5388722472       -0.5667257444
 H         -6.2246170611        1.3950300335       -0.3968165919
 H         -5.3841508449        0.5215458460       -1.6768454740
 H         -6.1372892447       -2.1682180247        0.8294777271
 H         -7.2202056107       -0.8351362833        0.4182540846
 H         -6.3538588337       -1.6923821880       -0.8533167836
 H         -4.3366536374        0.9427802149        1.8956132022
 H         -5.0340909574       -0.5825960705        2.4736158624
 H         -6.0835816218        0.7208400985        1.9314387975
 H         -4.4525894257       -1.5064860114       -2.0337413323
 H         -2.3304674792       -2.5219750395       -2.7078815521
 H          2.0323350800       -3.9001952883       -1.2868901739
 H          4.0634401947       -3.2350973912       -0.0803309363
 H          5.2896388306       -0.0096286185       -0.1430668175
 H          5.7654851387       -1.7055968321       -0.0893807395
 H          6.5005081737       -0.5533872782        1.0249017391
 H          4.0608380228       -2.4522674796        3.1766778571
 H          5.0430596479       -3.1579741302        1.8947762504
 H          5.7613636136       -2.0030022540        3.0135689616
 H          5.2530335687        0.3654390148        2.9328930758
 H          4.0915488766        1.0430396259        1.7975128582
 H          3.5364029990        0.0466020289        3.1568452029
 H          2.0593705206        0.2487690840        1.4203036340
 H         -0.0946799692        0.4978491658        2.2156088397
 H         -1.5057767052        1.8855639892        3.6807858735
 H         -3.0320847263        3.5572146314        2.7085866729
 H         -3.1369002069        3.8602313486        0.2618512412
 H         -1.6996018401        2.4600692535       -1.2092867276
 H          1.6333855165        2.5805168856        0.7453659189
 H          3.7215614392        3.7923940825        0.2491032118
 H          4.8113640498        3.5365901013       -1.9470110730
 H          3.8061984595        2.0714047317       -3.6626008038
 H          1.7162891923        0.8324493162       -3.1487418518
 H         -0.8151326052       -1.9443945231        1.2454502879
 H         -2.8639527741       -0.7902523059        1.8772611433
  70
  -96.9699097300000       0.215001392463282      !
 C         -5.2614418863        0.9047827945       -0.7073386288
 C         -5.0914843843       -0.2611786709        0.2784634924
 C         -6.2672824223       -1.2393166389        0.1398027697
 C         -5.1057592851        0.3111053273        1.6983018569
 C         -3.7958135282       -0.9744917203       -0.0523289512
 C         -3.6369109327       -1.5627676268       -1.3230710807
 C         -2.4674673499       -2.1743105246       -1.6937157142
 C         -1.3883981111       -2.2117408874       -0.8038586634
 O         -0.2138257590       -2.7010318491       -1.2314933812
 C          0.9126096202       -2.2546783995       -0.6382773391
 C          2.0281029987       -3.0773064947       -0.6162989413
 C          3.1529652544       -2.7334393677        0.1032301265
 C          3.1934023059       -1.5128983079        0.8562960869
 C          4.4143524712       -1.0981331506        1.6566046814
 C          5.0179452184        0.1576949169        1.0071044264
 C          5.4944995757       -2.1826863987        1.6966287846
 C          3.9998176044       -0.7844666646        3.1015749904
 C          2.1136430371       -0.6743702577        0.7958934287
 C          0.9766767098       -0.9311156248       -0.0110281256
 P          0.1885218416        0.4604277232       -0.8476352683
 O         -0.6265887735        0.1049610432       -2.0190718069
 C         -0.7612269437        1.3881192865        0.4135845209
 C         -0.6744582300        1.2171861645        1.7854424172
 C         -1.4456999298        2.0042557485        2.6244162145
 C         -2.3015933648        2.9568774062        2.0958684871
 C         -2.3875261439        3.1283777343        0.7234951580
 C         -1.6147852511        2.3452443482       -0.1152846273
 C          1.5340856524        1.6119653930       -1.2564586139
 C          2.0845168927        2.5021304002       -0.3356132320
 C          3.2133421880        3.2246988539       -0.6696938168
 C          3.8084710351        3.0609511215       -1.9113563783
 C          3.2629313444        2.1723027725       -2.8298733350
 C          2.1382464918        1.4458688869       -2.5007329097
 C         -1.5599243355       -1.7119614111        0.5033830383
 C         -2.7490496635       -1.0949826963        0.8496327554
 H         -4.4081463663        1.5752543550       -0.6363424839
 H         -6.1657800858        1.4625192452       -0.4728913279
 H         -5.3325344547        0.5513057410       -1.7317255412
 H         -6.1383764322       -2.0806538012        0.8175474350
 H         -7.2000210249       -0.7367960022        0.3864683492
 H         -6.3469487922       -1.6257327022       -0.8721038912
 H         -4.2981839401        1.0262529532        1.8373070847
 H         -5.0173021431       -0.4788339264        2.4407434653
 H         -6.0478266738        0.8277483699        1.8702802380
 H         -4.4395534014       -1.5108521637       -2.0413025051
 H         -2.3299605573       -2.5706662510       -2.6868898502
 H          1.9640834762       -4.0349748886       -1.1120969094
 H          3.9783123141       -3.4206570530        0.1346996035
 H          4.3103062241        0.9817999472        1.0050189217
 H          5.2932876334       -0.0484658696       -0.0246443020
 H          5.9089509659        0.4679447674        1.5489434501
 H          5.1094580326       -3.1018655155        2.1319482105
 H          5.8778983834       -2.3909000948        0.7011445917
 H          6.3260826956       -1.8414113148        2.3100331067
 H          4.8739545954       -0.5083202376        3.6874366228
 H          3.2925955685        0.0385964405        3.1440904589
 H          3.5395893516       -1.6577319960        3.5591452468
 H          2.1478304859        0.2828263194        1.2938244997
 H         -0.0169774508        0.4676786585        2.1999788452
 H         -1.3793323859        1.8736267827        3.6953136644
 H         -2.9026056350        3.5663884847        2.7553447131
 H         -3.0547834160        3.8719324353        0.3115253426
 H         -1.6627214523        2.4563042927       -1.1898016197
 H          1.6097219416        2.6444990720        0.6261670761
 H          3.6337192433        3.9227307543        0.0411078787
 H          4.6929704586        3.6264137883       -2.1646783421
 H          3.7226195260        2.0499465066       -3.8000746909
 H          1.6939647946        0.7500865489       -3.1988985728
 H         -0.8120148321       -1.9158748687        1.2546482915
 H         -2.8465476754       -0.7174546541        1.8543133380
  70
  -96.9699056300000       0.214070608279230      !
 C         -5.3089989954        0.8707213291       -0.7096652123
 C         -5.1039216456       -0.2709661661        0.2977281555
 C         -6.2656853650       -1.2705340979        0.1995827513
 C         -5.1039906299        0.3324137807        1.7046144637
 C         -3.8036702937       -0.9737750422       -0.0378367775
 C         -3.6477560589       -1.5668841656       -1.3064711016
 C         -2.4761198020       -2.1720262626       -1.6806403850
 C         -1.3925580705       -2.2001766849       -0.7957799081
 O         -0.2200609636       -2.6901337158       -1.2279185805
 C          0.9107124290       -2.2472937928       -0.6412657472
 C          2.0247981037       -3.0719654628       -0.6324251937
 C          3.1531758899       -2.7358234043        0.0851894713
 C          3.1981682852       -1.5229273696        0.8499428427
 C          4.4215465685       -1.1222321232        1.6539715529
 C          5.0344605142        0.1339751311        1.0137685871
 C          5.4935899656       -2.2153247435        1.6872897230
 C          4.0088424328       -0.8162470862        3.1011954628
 C          2.1212511796       -0.6799591608        0.7991603552
 C          0.9821745423       -0.9264796932       -0.0086380129
 P          0.2023438764        0.4657006256       -0.8556255397
 O         -0.5979872889        0.1024781020       -2.0347853539
 C         -0.7663198107        1.3930279772        0.3914593952
 C         -0.6701671209        1.2470933368        1.7656570111
 C         -1.4507731224        2.0349549813        2.5951005778
 C         -2.3251633140        2.9638522322        2.0547901387
 C         -2.4208522054        3.1099659237        0.6801042411
 C         -1.6386580996        2.3261482873       -0.1491924595
 C          1.5481945687        1.6209331480       -1.2492419904
 C          2.0969289027        2.4991731398       -0.3156916629
 C          3.2247218595        3.2278739052       -0.6388806277
 C          3.8202600941        3.0831595128       -1.8828688260
 C          3.2761388814        2.2070514826       -2.8141012589
 C          2.1526976445        1.4738513450       -2.4957640647
 C         -1.5610817354       -1.6970498127        0.5100290650
 C         -2.7515479341       -1.0841885791        0.8591975286
 H         -4.4632183251        1.5532952937       -0.6708374748
 H         -6.2155414678        1.4221112684       -0.4687832179
 H         -5.3970959744        0.4944599889       -1.7245200478
 H         -6.1159907543       -2.0907278349        0.8986789376
 H         -7.2035406500       -0.7760105234        0.4429805313
 H         -6.3495189640       -1.6861545282       -0.8004081954
 H         -4.2985647918        1.0544887851        1.8173348654
 H         -5.0017825841       -0.4400346257        2.4634335833
 H         -6.0468586030        0.8474254182        1.8771201444
 H         -4.4551982824       -1.5251279103       -2.0199907127
 H         -2.3414395828       -2.5726630917       -2.6724858891
 H          1.9560696848       -4.0260242458       -1.1344226448
 H          3.9769945687       -3.4251576513        0.1076996275
 H          5.9256465555        0.4353536783        1.5602926288
 H          4.3316147605        0.9627648360        1.0143639657
 H          5.3119413783       -0.0677228504       -0.0187836519
 H          5.1010641636       -3.1347084476        2.1159387477
 H          5.8766065693       -2.4196777934        0.6906694429
 H          6.3273295764       -1.8848357795        2.3036344104
 H          4.8857558233       -0.5555582071        3.6899925345
 H          3.3113024463        0.0149178716        3.1506927210
 H          3.5379192297       -1.6880811078        3.5510751874
 H          2.1602205257        0.2720771181        1.3063125130
 H          0.0013888559        0.5153989474        2.1896647875
 H         -1.3768114974        1.9238196828        3.6677194721
 H         -2.9327430946        3.5747941903        2.7068729853
 H         -3.1029996061        3.8346736691        0.2590514824
 H         -1.6948731285        2.4173397019       -1.2250823638
 H          1.6209264591        2.6275406988        0.6473677854
 H          3.6439782757        3.9165184478        0.0816562118
 H          4.7036000515        3.6539751517       -2.1280832511
 H          3.7357466481        2.0999684589       -3.7862099390
 H          1.7093573688        0.7880118839       -3.2041895042
 H         -0.8076946374       -1.8910230171        1.2584237831
 H         -2.8457001563       -0.7019975948        1.8624612446
