  70
        -96.97083264
 C         -5.3128646324        0.8563024236       -0.6462679907
 C         -5.1192461178       -0.3253130921        0.3160603572
 C         -6.2798108610       -1.3192739631        0.1640105971
 C         -5.1355079669        0.2198810424        1.7464288419
 C         -3.8136738378       -1.0124526328       -0.0336365477
 C         -3.6483555313       -1.5649702517       -1.3175912783
 C         -2.4712865076       -2.1518520264       -1.7051106329
 C         -1.3912267914       -2.1978217969       -0.8178706653
 O         -0.2109156315       -2.6600927578       -1.2649353204
 C          0.9128521280       -2.2044270171       -0.6752691860
 C          2.0648243757       -2.9695554537       -0.7395767562
 C          3.1951774737       -2.6004101382       -0.0406601237
 C          3.1962853622       -1.4339510951        0.7974940920
 C          4.4655437978       -1.0811825525        1.5464439630
 C          5.5768692115       -0.8250689988        0.5182120431
 C          4.8567638006       -2.2512405250        2.4625514329
 C          4.3177458431        0.1736705768        2.4107928893
 C          2.0734784052       -0.6607086630        0.8436814517
 C          0.9389813902       -0.9134998053        0.0191783643
 P          0.1767191536        0.4936888262       -0.8265714039
 O         -0.6033914767        0.1488563022       -2.0241337502
 C         -0.8128445523        1.4074781791        0.4126068509
 C         -0.7518308859        1.2389626141        1.7863633920
 C         -1.5514045325        2.0153735371        2.6085295614
 C         -2.4086776794        2.9562344028        2.0622197072
 C         -2.4684151361        3.1259434770        0.6880950297
 C         -1.6687677118        2.3525240586       -0.1339341462
 C          1.5539835689        1.6241428516       -1.1767808935
 C          2.1214740253        2.4551653325       -0.2117889199
 C          3.2859785348        3.1410893903       -0.4962578706
 C          3.8983468610        3.0008389085       -1.7326530449
 C          3.3334194297        2.1743863011       -2.6963921551
 C          2.1739137653        1.4826937656       -2.4163001083
 C         -1.5680898773       -1.7368710392        0.4999816903
 C         -2.7642967792       -1.1422504667        0.8635403050
 H         -4.4699443467        1.5388722472       -0.5667257444
 H         -6.2246170611        1.3950300335       -0.3968165919
 H         -5.3841508449        0.5215458460       -1.6768454740
 H         -6.1372892447       -2.1682180247        0.8294777271
 H         -7.2202056107       -0.8351362833        0.4182540846
 H         -6.3538588337       -1.6923821880       -0.8533167836
 H         -4.3366536374        0.9427802149        1.8956132022
 H         -5.0340909574       -0.5825960705        2.4736158624
 H         -6.0835816218        0.7208400985        1.9314387975
 H         -4.4525894257       -1.5064860114       -2.0337413323
 H         -2.3304674792       -2.5219750395       -2.7078815521
 H          2.0323350800       -3.9001952883       -1.2868901739
 H          4.0634401947       -3.2350973912       -0.0803309363
 H          5.2896388306       -0.0096286185       -0.1430668175
 H          5.7654851387       -1.7055968321       -0.0893807395
 H          6.5005081737       -0.5533872782        1.0249017391
 H          4.0608380228       -2.4522674796        3.1766778571
 H          5.0430596479       -3.1579741302        1.8947762504
 H          5.7613636136       -2.0030022540        3.0135689616
 H          5.2530335687        0.3654390148        2.9328930758
 H          4.0915488766        1.0430396259        1.7975128582
 H          3.5364029990        0.0466020289        3.1568452029
 H          2.0593705206        0.2487690840        1.4203036340
 H         -0.0946799692        0.4978491658        2.2156088397
 H         -1.5057767052        1.8855639892        3.6807858735
 H         -3.0320847263        3.5572146314        2.7085866729
 H         -3.1369002069        3.8602313486        0.2618512412
 H         -1.6996018401        2.4600692535       -1.2092867276
 H          1.6333855165        2.5805168856        0.7453659189
 H          3.7215614392        3.7923940825        0.2491032118
 H          4.8113640498        3.5365901013       -1.9470110730
 H          3.8061984595        2.0714047317       -3.6626008038
 H          1.7162891923        0.8324493162       -3.1487418518
 H         -0.8151326052       -1.9443945231        1.2454502879
 H         -2.8639527741       -0.7902523059        1.8772611433
  70
        -96.96990973
 C         -5.2614418863        0.9047827945       -0.7073386288
 C         -5.0914843843       -0.2611786709        0.2784634924
 C         -6.2672824223       -1.2393166389        0.1398027697
 C         -5.1057592851        0.3111053273        1.6983018569
 C         -3.7958135282       -0.9744917203       -0.0523289512
 C         -3.6369109327       -1.5627676268       -1.3230710807
 C         -2.4674673499       -2.1743105246       -1.6937157142
 C         -1.3883981111       -2.2117408874       -0.8038586634
 O         -0.2138257590       -2.7010318491       -1.2314933812
 C          0.9126096202       -2.2546783995       -0.6382773391
 C          2.0281029987       -3.0773064947       -0.6162989413
 C          3.1529652544       -2.7334393677        0.1032301265
 C          3.1934023059       -1.5128983079        0.8562960869
 C          4.4143524712       -1.0981331506        1.6566046814
 C          5.0179452184        0.1576949169        1.0071044264
 C          5.4944995757       -2.1826863987        1.6966287846
 C          3.9998176044       -0.7844666646        3.1015749904
 C          2.1136430371       -0.6743702577        0.7958934287
 C          0.9766767098       -0.9311156248       -0.0110281256
 P          0.1885218416        0.4604277232       -0.8476352683
 O         -0.6265887735        0.1049610432       -2.0190718069
 C         -0.7612269437        1.3881192865        0.4135845209
 C         -0.6744582300        1.2171861645        1.7854424172
 C         -1.4456999298        2.0042557485        2.6244162145
 C         -2.3015933648        2.9568774062        2.0958684871
 C         -2.3875261439        3.1283777343        0.7234951580
 C         -1.6147852511        2.3452443482       -0.1152846273
 C          1.5340856524        1.6119653930       -1.2564586139
 C          2.0845168927        2.5021304002       -0.3356132320
 C          3.2133421880        3.2246988539       -0.6696938168
 C          3.8084710351        3.0609511215       -1.9113563783
 C          3.2629313444        2.1723027725       -2.8298733350
 C          2.1382464918        1.4458688869       -2.5007329097
 C         -1.5599243355       -1.7119614111        0.5033830383
 C         -2.7490496635       -1.0949826963        0.8496327554
 H         -4.4081463663        1.5752543550       -0.6363424839
 H         -6.1657800858        1.4625192452       -0.4728913279
 H         -5.3325344547        0.5513057410       -1.7317255412
 H         -6.1383764322       -2.0806538012        0.8175474350
 H         -7.2000210249       -0.7367960022        0.3864683492
 H         -6.3469487922       -1.6257327022       -0.8721038912
 H         -4.2981839401        1.0262529532        1.8373070847
 H         -5.0173021431       -0.4788339264        2.4407434653
 H         -6.0478266738        0.8277483699        1.8702802380
 H         -4.4395534014       -1.5108521637       -2.0413025051
 H         -2.3299605573       -2.5706662510       -2.6868898502
 H          1.9640834762       -4.0349748886       -1.1120969094
 H          3.9783123141       -3.4206570530        0.1346996035
 H          4.3103062241        0.9817999472        1.0050189217
 H          5.2932876334       -0.0484658696       -0.0246443020
 H          5.9089509659        0.4679447674        1.5489434501
 H          5.1094580326       -3.1018655155        2.1319482105
 H          5.8778983834       -2.3909000948        0.7011445917
 H          6.3260826956       -1.8414113148        2.3100331067
 H          4.8739545954       -0.5083202376        3.6874366228
 H          3.2925955685        0.0385964405        3.1440904589
 H          3.5395893516       -1.6577319960        3.5591452468
 H          2.1478304859        0.2828263194        1.2938244997
 H         -0.0169774508        0.4676786585        2.1999788452
 H         -1.3793323859        1.8736267827        3.6953136644
 H         -2.9026056350        3.5663884847        2.7553447131
 H         -3.0547834160        3.8719324353        0.3115253426
 H         -1.6627214523        2.4563042927       -1.1898016197
 H          1.6097219416        2.6444990720        0.6261670761
 H          3.6337192433        3.9227307543        0.0411078787
 H          4.6929704586        3.6264137883       -2.1646783421
 H          3.7226195260        2.0499465066       -3.8000746909
 H          1.6939647946        0.7500865489       -3.1988985728
 H         -0.8120148321       -1.9158748687        1.2546482915
 H         -2.8465476754       -0.7174546541        1.8543133380
