112
 energy: -173.786160894175 gnorm: 0.000131882704 xtb: 6.7.1 (edcfbbe)
C           -0.90032546878450       -6.89329397745672        1.51281831493623
C           -0.26202310654999       -5.87209495663671        0.56642618690645
C           -0.61159036987581       -6.27086221241571       -0.87505235672867
C            1.26062013788444       -5.91830341556975        0.76602530951729
C           -0.74603445295929       -4.45338713993220        0.82070952639063
C           -1.65753512229217       -4.13412559212512        1.82233484322566
C           -2.06372970343591       -2.82932287337093        2.03872508848748
C           -1.56457306568137       -1.80489558145006        1.24375764761805
N           -1.93937192033607       -0.46431999624188        1.46797422531580
C           -1.05830045842697        0.55513218450518        1.86898872617629
C            0.28778467536437        0.41836406590354        2.23644595491036
C            1.06826576691575        1.61007526789024        2.36771824401926
C            2.41728803122552        1.56456576354847        2.50198907448475
C            3.12836455385030        0.32560098121766        2.51184984926455
C            4.53218937029987        0.26814993938152        2.28138154702473
C            5.14427609313054       -0.92339133439472        1.80342850114881
C            6.36755001892450       -0.89328118310888        1.19191439042508
C            7.07163898441721        0.30921524462063        1.08104431223165
S            8.09012217657278        0.52988490470478       -0.35554902832125
O            8.89191649132063        1.73362034903348       -0.25621474225079
O            8.78347806207434       -0.69049380264625       -0.71947849745001
C            6.66648772814392        0.78646792329838       -1.41713796598715
C            6.02302011185050       -0.32096179728766       -1.94717854577528
C            4.68982963740083       -0.23543346262596       -2.29839113648215
C            3.97643996123840        0.94514428940764       -2.08279611451354
C            2.51154606372185        0.95905555838093       -2.17934338947041
C            1.81757756807528        0.34036363954236       -3.21809533308131
C            0.43659545694263        0.31624467601728       -3.23088064953118
C           -0.28648631236064        0.88555007073599       -2.18280748850018
N           -1.68675690001217        0.84277287635552       -2.17109446404706
C           -2.47115823554942       -0.25912482865601       -2.45901914894823
C           -2.09940915126993       -1.56770967630153       -2.73551221017468
C           -3.10184316481141       -2.48689130349544       -2.98378989125135
C           -4.44517127219224       -2.12290536770717       -2.95722230098038
C           -4.82346166909455       -0.82827231217815       -2.65586196336845
C           -3.83485681883819        0.10904122841925       -2.39563238123365
C           -3.86652301133992        1.50444808539432       -2.05578554516582
C           -4.89710675670362        2.41876934520464       -1.89307660796153
C           -4.57693492624073        3.73238547335252       -1.61006064213420
C           -3.24895113104227        4.13610927908093       -1.49921506808814
C           -2.20610611929688        3.24355489743473       -1.65760675347149
C           -2.52093238564821        1.91771793467012       -1.92328756363320
C            0.40020609103563        1.50654283779227       -1.14113950414757
C            1.77805147634658        1.55225205616671       -1.15037883052793
C            4.66792297150930        2.08012964134620       -1.64907128081358
C            6.00357194213679        2.00126002349301       -1.31606900766834
C            6.58258729480482        1.45059649583086        1.72255845878527
C            5.35627194690027        1.42673567040950        2.32854018264134
C            2.31974228685427       -0.84479276194561        2.62504437304159
C            0.96799648225465       -0.80730455335195        2.49884287943186
N           -1.68931866228054        1.74235612187292        1.88148797245938
C           -2.95676947866193        1.50429166613762        1.55135898852606
C           -4.03405575324126        2.43351755192354        1.52258517460118
C           -3.82623508078558        3.78102849701177        1.83307969436628
C           -4.88292372057215        4.66050694694372        1.86118494769234
C           -6.16300521715449        4.19254007562787        1.58121519761422
C           -6.37759864844678        2.86714982913979        1.26657188957453
C           -5.32484456755344        1.94406823912368        1.21677423022324
C           -5.51541674742812        0.54414374430899        0.87195437619700
C           -6.77279164647202        0.04131665870204        0.52681364634106
C           -6.96838083830627       -1.28070128473586        0.18694639555704
C           -5.88807162950597       -2.15818292252189        0.14856846926000
C           -4.63476142452904       -1.70683479266987        0.47444248300611
C           -4.41753196467381       -0.37190922088675        0.86840693240186
C           -3.15767626473647        0.12498633066196        1.26878667583478
C           -0.65097064926293       -2.10301383414404        0.23878310668984
C           -0.25516832049712       -3.40950231959614        0.03747221079828
H           -0.65315962736701       -6.67672644358973        2.54964869000514
H           -1.98173768672950       -6.91300651601990        1.39835013699215
H           -0.52128120642129       -7.88631984899156        1.28026986694755
H           -0.27915218191918       -7.28804181360808       -1.07041052262477
H           -1.68812545878184       -6.22537497302110       -1.02718824549165
H           -0.13463909185862       -5.61358980788385       -1.59649099195606
H            1.51819141211449       -5.61006976981826        1.77757232338389
H            1.77420106166534       -5.26222044205123        0.06877227700667
H            1.62580954322072       -6.93137062804203        0.61214227915528
H           -2.06264277630496       -4.90029651246603        2.46184397308324
H           -2.76330685375406       -2.59956145764435        2.82983565884151
H            0.54636712645023        2.55213987289799        2.30459852313265
H            2.96814087297298        2.49060355378347        2.53999882357333
H            4.60120969653921       -1.85382073359469        1.83270946572654
H            6.79458171326231       -1.77753448921572        0.74350237229067
H            6.57244206461863       -1.24562348145124       -2.03527876350655
H            4.17748337757950       -1.11008552154684       -2.66949794529006
H            2.36561758666788       -0.10108856932818       -4.03691720854303
H           -0.09057553458777       -0.13065571189853       -4.06022004683855
H           -1.06354369578354       -1.86649076073976       -2.75619753982284
H           -2.83492968249079       -3.50868994424599       -3.20867990607865
H           -5.19943015919318       -2.86554521728025       -3.16978964145745
H           -5.86457018150067       -0.54701801174304       -2.61956038121979
H           -5.92472113737948        2.10634415678817       -1.99729902826862
H           -5.36305859338132        4.46047702399941       -1.48048567699958
H           -3.02780314083414        5.17241472037150       -1.29204853824502
H           -1.18219578116450        3.57706903783165       -1.59331523369498
H           -0.14916521512370        1.92635003927342       -0.31263710412740
H            2.29696220775854        2.01049908736422       -0.32312203578365
H            4.14235371619044        3.01710119844036       -1.54412593392077
H            6.54235897504993        2.85526077324206       -0.93574396450706
H            7.18118479230334        2.34881099190101        1.69550847450062
H            5.00081837773682        2.31606326151543        2.82409175447058
H            2.79345079728446       -1.79008654996194        2.83978940644855
H            0.40198717281345       -1.71516748856885        2.62812077829609
H           -2.81948510361961        4.09791230254852        2.05710430806148
H           -4.72496614181294        5.70073911052093        2.10305476558859
H           -7.00080064001034        4.87414032822678        1.61037072647255
H           -7.38819577190861        2.55457932185099        1.05917197851906
H           -7.62871665299474        0.69640965639345        0.52074010299947
H           -7.95885617636130       -1.63067728933809       -0.06329117427794
H           -6.03304087254240       -3.18741941600802       -0.14208089277722
H           -3.79636997869634       -2.38048983820909        0.41712732182608
H           -0.24421731360485       -1.30350108369938       -0.36230271927013
H            0.45798930367820       -3.61013698636423       -0.74642076165654
