112
 energy: -173.873975628150 gnorm: 0.000080056726 xtb: 6.7.1 (edcfbbe)
C           -2.86029429745659        5.27471417094694        0.03909448204214
C           -3.07127167876493        4.26133716028337        1.16812244383328
C           -3.60395924328459        5.01705332348971        2.39486502032480
C           -1.71599548619960        3.61841297402326        1.49840031265341
C           -4.05688522867433        3.16509955146017        0.79523512839980
C           -4.66575429807117        3.08972020554263       -0.45335006154876
C           -5.55858773271694        2.07799073376259       -0.75897349864335
C           -5.86925153147700        1.11332811306316        0.19102758986918
N           -6.76887177563945        0.06823016860310       -0.11853813939800
C           -6.43599444798394       -1.26056923154580       -0.24664100446475
C           -5.10339879445441       -1.82215261872646       -0.10115520877568
C           -3.93386532074337       -1.14253610933211       -0.43973934372792
C           -2.70399545019589       -1.75521480820721       -0.29989170403480
C           -2.60084150259400       -3.05827805735914        0.18277659988753
C           -1.29459275246139       -3.71816815730363        0.32451477440431
C           -0.31753701786159       -3.57966935695532       -0.66311062347640
C            0.89400405033981       -4.23626044035743       -0.55061191622421
C            1.13496734398228       -5.02752884251421        0.55728859474878
S            2.68706901803137       -5.92325118673085        0.66357200807277
O            2.80200787221880       -6.49337233015435        1.99072206805949
O            2.75131884841689       -6.85187432405240       -0.44791013382996
C            3.97004730291721       -4.68915525266951        0.44852535467084
C            4.66331300662055       -4.61696960252441       -0.74467344091661
C            5.65051170168088       -3.66119983206824       -0.89896453881874
C            5.94624774227368       -2.77366315575742        0.13685195789266
C            7.00916606703927       -1.77012560658166       -0.02212545132268
C            8.20175820050581       -2.09654753337124       -0.66667140262957
C            9.20565541109033       -1.16104012801415       -0.81627123351644
C            9.04006257315175        0.12969544507182       -0.31968443396294
N           10.05946370662112        1.08005581486821       -0.46725155645523
C            9.90917071104934        2.35620527939036       -0.97471278470222
C            8.77794433379225        2.97764602189003       -1.48528307031805
C            8.90933640651017        4.26859193644299       -1.96088197902722
C           10.13557090059209        4.93034476695188       -1.94139265672597
C           11.26967167787227        4.30850664652259       -1.45769400599715
C           11.16283865779748        3.01068917937451       -0.97380828187785
C           12.11028566668791        2.07716131528253       -0.43091079954812
C           13.47223510533340        2.14319874285932       -0.16521260630078
C           14.09104919169729        1.04470612959774        0.39784354666751
C           13.36626203767696       -0.10421505406129        0.70892571244464
C           12.01095645063425       -0.19388850625644        0.45392090277976
C           11.38812061571363        0.89774572569136       -0.13517595072026
C            7.85205260998758        0.46474855215955        0.32548354262669
C            6.85139179485453       -0.47532898035278        0.47031413917462
C            5.22586216333093       -2.86164113000933        1.32992230916479
C            4.23906582335155       -3.81691141431611        1.48696495372803
C            0.19229737803154       -5.16348656682786        1.55771600562748
C           -1.02225863820069       -4.51282554630530        1.43885157675840
C           -3.77327983455408       -3.74062156248815        0.50956182525064
C           -5.00275785900855       -3.13624599661103        0.36321822798721
N           -7.48151123187275       -2.00522550193367       -0.52584050348849
C           -8.53930705391963       -1.15673444466820       -0.59094915554033
C           -9.89272710732744       -1.47215204710613       -0.89863083502753
C          -10.28333694974909       -2.78212559196361       -1.19753949734561
C          -11.58870179208925       -3.06209627411349       -1.51723842917242
C          -12.52251615488079       -2.02782712323521       -1.54541907187714
C          -12.15069583328665       -0.73707401902678       -1.24855957676502
C          -10.82779329559865       -0.41173118937000       -0.90976268546712
C          -10.40949299743702        0.93712311408627       -0.56571902096041
C          -11.32650393974782        1.99670421240835       -0.50473936186345
C          -10.94900107045095        3.27028385547304       -0.14929168416640
C           -9.62387121772595        3.53903873099009        0.17888783746385
C           -8.69322202186249        2.53045347368551        0.12767894330090
C           -9.05232859078174        1.22970522089169       -0.25489418072835
C           -8.12747047115046        0.14885081676702       -0.32531477471119
C           -5.26789285844497        1.16755789194431        1.44165196912387
C           -4.37555044703300        2.18149653041196        1.72998624931939
H           -2.44974655804200        4.79696148485924       -0.84747443540770
H           -3.79227330423644        5.77179032905211       -0.22063597153194
H           -2.15464563065600        6.03603869297843        0.36516503016509
H           -3.69911637495455        4.36286023370192        3.25693193517693
H           -2.92595106754735        5.82646444644667        2.65658450421631
H           -4.58202984786455        5.44343629968067        2.18006209579546
H           -1.79707330274968        2.92708292201519        2.33256985715928
H           -0.99337816114554        4.38778699304055        1.76152139760984
H           -1.33907516073952        3.07091609989853        0.63674479357475
H           -4.45339935874164        3.82123000817272       -1.21493838283887
H           -6.02359666638203        2.03506542144162       -1.73376431551517
H           -3.98011372215269       -0.13949510369250       -0.83382816649517
H           -1.80881167195744       -1.20796132219698       -0.55440589903367
H           -0.52171647668687       -2.97769708337066       -1.53519919311337
H            1.64765978803571       -4.15356222847117       -1.31817189304155
H            4.42420527624601       -5.32046123871304       -1.52749557182319
H            6.18636388247725       -3.59259276844590       -1.83327279885867
H            8.35067967364461       -3.09833776302904       -1.04037889998950
H           10.11972124338840       -1.42095052953025       -1.32887476505912
H            7.82692776880495        2.46829234396045       -1.52190918276888
H            8.04265505973732        4.77477383225162       -2.36074754710065
H           10.19725184923356        5.94010677616019       -2.32024157464283
H           12.22313978872222        4.81548563710494       -1.45827318730533
H           14.03117705693448        3.03916833015691       -0.39114708905575
H           15.14987035128778        1.07487178876193        0.60991472684292
H           13.87459105408033       -0.94206596072377        1.16384998034377
H           11.45635059047504       -1.08227335649084        0.71597884238660
H            7.72524900017447        1.46040888672853        0.72342533851357
H            5.92951692489620       -0.19793935627620        0.95860619069131
H            5.45866514652121       -2.19418619803675        2.14532895235883
H            3.68664799766005       -3.91205118213948        2.40883008691479
H            0.42601204085033       -5.78341519864696        2.40964239276718
H           -1.76104356658737       -4.61035933731983        2.21967590410045
H           -3.71771222052938       -4.76180857624801        0.85561923057837
H           -5.91142282073315       -3.66760172144971        0.60058814128931
H           -9.52758015544616       -3.55254127588499       -1.17266502838298
H          -11.89246361518533       -4.07227631035666       -1.74991162987864
H          -13.55010041744118       -2.24119507874233       -1.80299835119340
H          -12.90761077377011        0.03012424324748       -1.28660353097225
H          -12.36483109995585        1.82028554374055       -0.73430085374290
H          -11.68499972079182        4.06024188545946       -0.11456752838464
H           -9.32793431030256        4.53427534655911        0.47643260457887
H           -7.67059205627410        2.73889074243700        0.39732765507779
H           -5.50285844352566        0.41447215603616        2.17971238419825
H           -3.92499343493413        2.19904886486526        2.70990327994202
