112
 energy: -173.786504216014 gnorm: 0.000040713317 xtb: 6.7.1 (edcfbbe)
C           -2.41310305946078       -7.75168399998201        0.06131436435641
C           -1.08769260810129       -7.03155486640859       -0.22969672588578
C           -0.66816840665054       -7.36347553865118       -1.66497978458517
C            0.00431896332783       -7.54454433384844        0.72108012701947
C           -1.27718262899360       -5.54003732935051       -0.00396091697135
C           -1.66907904595699       -5.08097901356492        1.25264890240635
C           -1.86246165008657       -3.73736668323433        1.50616742528416
C           -1.66241238947801       -2.80694629936206        0.49323651582019
N           -1.87688873781421       -1.43128695232592        0.75240746758397
C           -0.95566694913290       -0.53259176851841        1.30509748115897
C            0.40970666943314       -0.73487783886489        1.56277985357485
C            1.10865868712049        0.30864065240286        2.24382481585521
C            2.45028667526472        0.26566922116133        2.43638790597028
C            3.24826399539001       -0.80204171921659        1.92925933861513
C            4.66620894087780       -0.68953910299960        1.85669919349664
C            5.42073945614270       -1.45918491525372        0.92922956296717
C            6.67115526838671       -1.06579142474644        0.53919500611150
C            7.26068895285077        0.07306483274548        1.09879636736034
S            8.28337324795484        1.06601194507581        0.04405970023337
O            9.02738336619257        2.05998778546411        0.79325830863727
O            9.03773967264498        0.25189889252272       -0.88958491246038
C            6.85614969787679        1.80208872284068       -0.75198619932767
C            6.18118224358351        1.04659870940347       -1.70050805192671
C            4.84678667708351        1.28923286396323       -1.94899588861364
C            4.15504134726616        2.27603726375366       -1.23810605780584
C            2.69463717325508        2.36863567769136       -1.32439185856608
C            2.00549584757349        2.08225338477613       -2.50503441035585
C            0.62649577026708        2.09692886264401       -2.54430323567377
C           -0.10487114592306        2.39630350953583       -1.39631339701104
N           -1.50685148775249        2.41871525709488       -1.43693519226277
C           -2.31636497559956        1.42331944747541       -1.93478999666794
C           -1.97721487312890        0.15586159526047       -2.38957208541402
C           -2.99627851532213       -0.66148152370285       -2.84163123916739
C           -4.32342632396078       -0.23960017910308       -2.83269821793963
C           -4.67015077538391        1.01150703485907       -2.35703218038499
C           -3.66499223033953        1.85113107641484       -1.90143567811392
C           -3.65392150649553        3.18184167267928       -1.35873013394759
C           -4.64330354622187        4.12496802194395       -1.12381476809107
C           -4.27581070991635        5.35464628330674       -0.61098738952134
C           -2.94139170238863        5.65086074197298       -0.34417162309206
C           -1.93722664084604        4.72982685503743       -0.57653990450778
C           -2.30255630361285        3.48802725900999       -1.07632665054835
C            0.56893620485280        2.69132994094390       -0.21489298009109
C            1.94740983678495        2.67805572002399       -0.18436624542976
C            4.88070244913307        3.09848590798615       -0.36849977454580
C            6.21475757050403        2.85600975012407       -0.11665421997185
C            6.62938767960511        0.70997114992926        2.17274702476442
C            5.37683645960385        0.32384080644011        2.56006615904145
C            2.52897990454888       -1.89765662375146        1.36802633725024
C            1.17974730302135       -1.87509872762411        1.19769631763489
N           -1.55489532143160        0.64040318986353        1.58281431957071
C           -2.83320589247331        0.50998059527787        1.23996525624361
C           -3.88256577881670        1.45867754361834        1.40935965926290
C           -3.63240796254291        2.71089852741469        1.97703149286848
C           -4.66064829386970        3.59981045645341        2.18636720982065
C           -5.95415176929212        3.23716964138225        1.82610658722874
C           -6.21086567609180        2.00648817160197        1.25970608791615
C           -5.18948109677682        1.07507886398276        1.03035003395596
C           -5.43096422482703       -0.23546170146943        0.44947414449162
C           -6.70616673873188       -0.62739005116378        0.02998993863021
C           -6.95223643935274       -1.87111460081094       -0.50965227846889
C           -5.91300911898078       -2.78848881909590       -0.65659797137690
C           -4.64555496270679       -2.44609817907035       -0.26322534489244
C           -4.36937919347536       -1.18158071944050        0.29458167398398
C           -3.08335250647306       -0.78422440445214        0.71339018889626
C           -1.26414088793314       -3.24224163048038       -0.76347011805461
C           -1.07716461027568       -4.59244980388502       -1.00270677045995
H           -2.72566749923707       -7.61070128972875        1.09220010134001
H           -3.19933983331651       -7.37330333333484       -0.58914564848837
H           -2.30300095164906       -8.81904012114157       -0.11693450513604
H           -0.55074242644004       -8.44041255243456       -1.76568294481705
H           -1.42241422137681       -7.04146023993992       -2.37946488501809
H            0.28363583841651       -6.89979425747055       -1.91385809577805
H           -0.27039674911838       -7.39513545919321        1.76158608373539
H            0.94142651461362       -7.02254807196014        0.53720401828946
H            0.16643283967075       -8.60832935037361        0.56198647790262
H           -1.83140895083830       -5.77957531054538        2.05831718610627
H           -2.16961163321190       -3.40142446205745        2.48604738352877
H            0.52462361031050        1.14372195978720        2.59492988794903
H            2.93062163689370        1.09160614563114        2.93511171349747
H            4.97180080041684       -2.31228357643519        0.44721042358699
H            7.20950849455510       -1.58921467260684       -0.23656956796830
H            6.71098758195284        0.24916298879161       -2.19836999368871
H            4.31752086370889        0.65959213530241       -2.64735471284837
H            2.55646105530544        1.87317213139808       -3.40932306093349
H            0.10597010985335        1.89380389532734       -3.46893954314506
H           -0.94764588554672       -0.17150360804365       -2.39051734623435
H           -2.76411409285175       -1.64813752440030       -3.21460428235984
H           -5.09065711569576       -0.90515183248710       -3.19772204205326
H           -5.70033146562109        1.33192646201181       -2.34272519311352
H           -5.67584914975075        3.90111394580007       -1.34333522655537
H           -5.03094256730663        6.10286416427174       -0.42160800063865
H           -2.68414371393210        6.62465599574280        0.04577886382164
H           -0.90330417455806        4.97418226952435       -0.38728821473973
H           -0.00026696940544        2.88999343569607        0.67942496985210
H            2.45553208675651        2.87057573641726        0.74675546875114
H            4.38614490656477        3.91691544662302        0.13174984731790
H            6.77241417680651        3.44870584812121        0.59225377189394
H            7.14138309465181        1.53027724533928        2.65320359500402
H            4.91086273182895        0.82093610714530        3.39585417225471
H            3.06912803984630       -2.78485461192134        1.07606678005976
H            0.69448012998270       -2.73290913251639        0.76277995276676
H           -2.61631042776635        2.94939480429363        2.24982936926124
H           -4.46924116955133        4.56537835779745        2.62865665593364
H           -6.76913820258886        3.92663808736568        1.99122271536499
H           -7.23115325788967        1.77082353536159        1.00316264849160
H           -7.53419025684173        0.05643309720869        0.12139196127290
H           -7.95250232790864       -2.13437379620212       -0.81999143851817
H           -6.10458551222897       -3.76264333615330       -1.08101528984426
H           -3.84165458337218       -3.15307135303804       -0.38233288930107
H           -1.10326213499939       -2.51988323375568       -1.54832769986813
H           -0.77020167536690       -4.89247700539548       -1.99061550035699
