  112
       -173.72534276
 C         -1.1153447863       -6.9097274684        1.1793373978
 C         -0.3952308842       -5.8589088449        0.3304822505
 C         -0.7303854146       -6.1229316003       -1.1446563410
 C          1.1150025744       -6.0109391169        0.5586097888
 C         -0.8107648244       -4.4392497218        0.6770997354
 C         -1.7434951355       -4.1445116862        1.6657305832
 C         -2.1181068061       -2.8409817135        1.9362741871
 C         -1.5665153802       -1.7919943719        1.2104145716
 N         -1.9437367451       -0.4617773101        1.4590724510
 C         -1.0592373251        0.5631275555        1.8444887991
 C          0.2884606506        0.4352268909        2.2012439822
 C          1.0546631522        1.6355451750        2.3405276631
 C          2.4048334924        1.6049724536        2.4597292647
 C          3.1306244142        0.3755231420        2.4507938799
 C          4.5372483657        0.3393535022        2.2312278032
 C          5.1699225628       -0.8384063121        1.7513845438
 C          6.4140483949       -0.7922445895        1.1839402607
 C          7.1120060178        0.4148306607        1.1131794735
 S          8.1720013055        0.6621246590       -0.2998221530
 O          8.9417423472        1.8763753336       -0.1793897159
 O          8.8758557354       -0.5429774860       -0.6666892902
 C          6.7292232379        0.9008521290       -1.3517298727
 C          6.1014220568       -0.2186179079       -1.8737702421
 C          4.7608379456       -0.1634094529       -2.1990893293
 C          4.0245530942        1.0001930516       -1.9702417935
 C          2.5613941140        0.9861750390       -2.0648359436
 C          1.8836327619        0.3258446209       -3.0885423850
 C          0.5043556545        0.2740401229       -3.1056343690
 C         -0.2352113695        0.8597846575       -2.0781002671
 N         -1.6319723722        0.7742218627       -2.0702674372
 C         -2.3739672755       -0.3598107197       -2.3423678174
 C         -1.9549639062       -1.6602962043       -2.5865501270
 C         -2.9222721756       -2.6235422453       -2.8034566170
 C         -4.2776704325       -2.3087864128       -2.7890744982
 C         -4.7030859269       -1.0196098559       -2.5312181360
 C         -3.7502400415       -0.0403790169       -2.2936761651
 C         -3.8343194471        1.3581683600       -1.9801594150
 C         -4.8993926133        2.2358686783       -1.8390155094
 C         -4.6298767158        3.5630686197       -1.5699387904
 C         -3.3185328701        4.0153848954       -1.4497829463
 C         -2.2423785390        3.1606450090       -1.5896689774
 C         -2.5055661409        1.8214290573       -1.8432372425
 C          0.4343081406        1.5314074155       -1.0569405631
 C          1.8111595829        1.5988767915       -1.0601931810
 C          4.6969191221        2.1476221380       -1.5405873394
 C          6.0393927515        2.0981297859       -1.2321238473
 C          6.5931368246        1.5437832116        1.7491447302
 C          5.3469968789        1.5039656363        2.3136111352
 C          2.3386677167       -0.8059813209        2.5543816042
 C          0.9854908256       -0.7855206038        2.4437240764
 N         -1.6948705454        1.7480865149        1.8623138551
 C         -2.9647339909        1.5045893294        1.5564088352
 C         -4.0401906130        2.4355793325        1.5335084564
 C         -3.8200679726        3.7877334690        1.8106968277
 C         -4.8719771884        4.6729276107        1.8337271566
 C         -6.1582136785        4.2048042062        1.5863213393
 C         -6.3843855692        2.8739578644        1.3051304048
 C         -5.3365769674        1.9456828940        1.2570499859
 C         -5.5344584992        0.5427080315        0.9304858503
 C         -6.7991411371        0.0411466319        0.6141973825
 C         -7.0045920945       -1.2800175429        0.2771968265
 C         -5.9247435964       -2.1554183933        0.2080750489
 C         -4.6638104681       -1.7055893938        0.5048017124
 C         -4.4360066618       -0.3736857751        0.9049313213
 C         -3.1693182628        0.1220638834        1.2831732339
 C         -0.6072615946       -2.0652698952        0.2402384942
 C         -0.2440435526       -3.3707347482       -0.0155933910
 H         -0.8884436526       -6.7838675985        2.2353379859
 H         -2.1920628236       -6.8589790848        1.0357754134
 H         -0.7842350128       -7.9024506984        0.8824936467
 H         -0.4607139090       -7.1419227306       -1.4127930486
 H         -1.7969665335       -5.9918049074       -1.3154667098
 H         -0.1927599626       -5.4447092629       -1.8011844504
 H          1.3605878705       -5.8063507592        1.5987030779
 H          1.6829574041       -5.3276349262       -0.0664890378
 H          1.4271107928       -7.0260963437        0.3243276248
 H         -2.1949073301       -4.9306258454        2.2475731827
 H         -2.8410528218       -2.6323500635        2.7117230354
 H          0.5189177993        2.5705360894        2.2983240463
 H          2.9454088645        2.5370085834        2.5058486952
 H          4.6296472452       -1.7711429881        1.7468859356
 H          6.8594785972       -1.6680541169        0.7384359861
 H          6.6687397228       -1.1300649298       -1.9772059292
 H          4.2599090447       -1.0485393434       -2.5624081445
 H          2.4433131230       -0.1262229178       -3.8939419771
 H         -0.0098653418       -0.2055680004       -3.9249331745
 H         -0.9093506472       -1.9219851783       -2.6061614619
 H         -2.6157507008       -3.6414479074       -2.9939626891
 H         -5.0033497410       -3.0851922189       -2.9784418566
 H         -5.7538028949       -0.7746431449       -2.5095229144
 H         -5.9137362509        1.8839395992       -1.9493116223
 H         -5.4428113443        4.2637844666       -1.4560945353
 H         -3.1379498603        5.0608430968       -1.2510127125
 H         -1.2322778912        3.5329896908       -1.5223061254
 H         -0.1256590067        1.9706631410       -0.2471957507
 H          2.3185722066        2.0909284137       -0.2457091529
 H          4.1509631759        3.0720476239       -1.4258387817
 H          6.5626221737        2.9633182976       -0.8570913355
 H          7.1825042903        2.4476060225        1.7513126965
 H          4.9668442035        2.3849567056        2.8059382797
 H          2.8270494860       -1.7473207537        2.7542766616
 H          0.4316402965       -1.7008185987        2.5733441606
 H         -2.8081763291        4.1030021682        2.0115771356
 H         -4.7065722499        5.7178898477        2.0477049404
 H         -6.9925712243        4.8905877908        1.6133334887
 H         -7.4000599268        2.5624671707        1.1201904499
 H         -7.6550120603        0.6966910547        0.6288527140
 H         -8.0007751985       -1.6294977489        0.0507688275
 H         -6.0754786584       -3.1828194321       -0.0868283000
 H         -3.8291031133       -2.3792950719        0.4136695563
 H         -0.1439418211       -1.2498604785       -0.2938144556
 H          0.4992073075       -3.5540730757       -0.7757894842
