82
 energy: -120.325293753048 gnorm: 0.000045961057 xtb: 6.7.1 (edcfbbe)
C           -7.97443344798402        2.60289177915800        0.51885802074497
C           -7.65407484818231        1.26428623394872       -0.17277801469927
C           -8.90305463514300        0.72714099968858       -0.89676420459958
C           -6.56318146896638        1.49476451015377       -1.19807531521604
C           -6.77880423358661        2.38139374634000       -2.24377332706546
C           -5.82243279121894        2.61558180319991       -3.21461765848237
C           -4.61263663750441        1.94267442243670       -3.15533291750789
C           -4.36991781671490        1.05827652654237       -2.12872007299729
C           -5.33070193665055        0.82870636133054       -1.13455320569556
N           -5.05247278756100       -0.05716027251563       -0.11511999391481
C           -3.77840912186510       -0.69534827769665       -0.08327404454003
C           -2.67870779646435       -0.02211496219412        0.44780615184587
C           -1.44253990242149       -0.62449108088884        0.47796999491218
C           -1.26282457584587       -1.92049884694417       -0.03753480240482
C           -0.00099231814994       -2.63277835100171        0.00096402997944
O           -0.00120371377902       -3.90200172567902        0.00045218203269
C            1.26093127724615       -1.92082716713387        0.03966341163998
C            2.39575319136114       -2.60647871153447        0.52143617861550
C            3.62667549665278       -2.00222808246678        0.55556781902104
C            3.77723087174936       -0.69692130548124        0.08411578788653
N            5.05200037880747       -0.06008544574672        0.11484271641384
C            5.96686497663986       -0.34435313100489       -0.87756337315186
C            5.61985369200964       -1.23871139886437       -1.89928062240836
C            6.51370229162991       -1.55041211339732       -2.89875672290642
C            7.77297405399522       -0.97229602140281       -2.90337812569412
C            8.11455738900685       -0.07887375022763       -1.90479870456979
C            7.23474092653645        0.25504971654656       -0.88473103452317
C            7.65846146347364        1.25171554454067        0.17445830631949
C            7.98674530061644        2.59016628076093       -0.51372515969428
C            8.90388159211273        0.70597557541702        0.89817589568562
C            6.56798930890777        1.48549936584152        1.19946850725894
C            6.78667510221406        2.37020404539233        2.24616586886389
C            5.83086274888602        2.60715891279294        3.21688751982717
C            4.61854982271707        1.93889772499193        3.15657151971571
C            4.37293041642251        1.05618029679657        2.12919303665054
C            5.33313660694523        0.82393383420987        1.13509736874451
C            2.67709076143268       -0.02220687095609       -0.44420547093642
C            1.44060017109897       -0.62393305336113       -0.47372118077970
C           -2.39730703576399       -2.60487991305711       -0.52180144984948
C           -3.62790714354322       -1.99995576142934       -0.55662852485226
C           -5.96903400373764       -0.34099055106785        0.87580932053627
C           -5.62599948146758       -1.23954542986690        1.89518937822312
C           -6.52166790280157       -1.55084690390931        2.89315180043110
C           -7.77871395714467       -0.96791178605144        2.89874764528985
C           -8.11633235839293       -0.07036834119998        1.90252024245270
C           -7.23477145451401        0.26293252467311        0.88375544078723
H           -8.76630866960449        2.47992741698191        1.25223777477834
H           -7.08890554483046        2.97748627036009        1.02885115509704
H           -8.29360175512288        3.34654697020508       -0.20585950725388
H           -8.67023254129935       -0.21711834368834       -1.38525167067490
H           -9.24494120620832        1.42902028734235       -1.65209389341028
H           -9.71533188634688        0.55952872879281       -0.19527749192141
H           -7.71921664578299        2.90719051384342       -2.30939716553802
H           -6.02251117746746        3.31308559115974       -4.01344950605202
H           -3.85895086993603        2.10603819170327       -3.91064459908574
H           -3.43111800596358        0.52906751748224       -2.08587117311998
H           -2.81354401351931        0.97291686393768        0.84853085631314
H           -0.61615540683857       -0.10933688440855        0.94308319501974
H            2.26244460780662       -3.61729756744481        0.87516311603133
H            4.48844717140844       -2.52550759451471        0.94423327276379
H            4.63793186550715       -1.68456804222362       -1.89957004489979
H            6.22748072753303       -2.24345935588824       -3.67510219660523
H            8.48233533137151       -1.21104922882062       -3.68084965932042
H            9.09661513384123        0.36859568540349       -1.92738162469423
H            8.30791612460420        3.33084894689719        0.21312808541664
H            7.10414694609426        2.97001438558416       -1.02490429800372
H            8.77966672247207        2.46495521883239       -1.24558383106280
H            9.24767288233921        1.40319168442165        1.65696168218045
H            8.66606825400770       -0.23924418325139        1.38238956007855
H            9.71644104627260        0.53759860349815        0.19717844763650
H            7.72914264159144        2.89219661292609        2.31273687112629
H            6.03331948209982        3.30317051777618        4.01642083135915
H            3.86519238958372        2.10449851052130        3.91172283148688
H            3.43222222100296        0.53043498704042        2.08565843187061
H            2.81185281716249        0.97344292176578       -0.84341914717496
H            0.61386304138013       -0.10753452808564       -0.93681543682059
H           -2.26401775749023       -3.61516966374134       -0.87704509365313
H           -4.48938850242290       -2.52213371676404       -0.94741320857437
H           -4.64573597693309       -1.68903719220224        1.89482698416037
H           -6.23859515325299       -2.24730750922870        3.66759584400076
H           -8.48940429731931       -1.20612851770198        3.67517035935188
H           -9.09659561038759        0.38098319376723        1.92601814878259
