  82
       -120.32046019
 C         -8.0213657878        2.5622542511        0.5542210319
 C         -7.6782514818        1.2430812314       -0.1635937739
 C         -8.9146122236        0.7056663859       -0.9089091167
 C         -6.5831594879        1.5088349815       -1.1753933945
 C         -6.8019416688        2.4149925091       -2.2034940974
 C         -5.8426770538        2.6785099892       -3.1639533146
 C         -4.6268492137        2.0152793906       -3.1129240802
 C         -4.3805037770        1.1126135637       -2.1034816887
 C         -5.3437126142        0.8543283018       -1.1182116199
 N         -5.0608746650       -0.0476641461       -0.1151343261
 C         -3.7823219820       -0.6764495135       -0.0898426157
 C         -2.6848853191        0.0013663328        0.4426910615
 C         -1.4469638163       -0.5961717228        0.4733112866
 C         -1.2610318856       -1.8919427490       -0.0425771616
 C          0.0001428744       -2.6075894132        0.0032322371
 O          0.0019259866       -3.8707528473        0.0028887352
 C          1.2594816532       -1.8885079574        0.0495669524
 C          2.3935222380       -2.5737848865        0.5363628343
 C          3.6246350310       -1.9720772464        0.5704817285
 C          3.7784215869       -0.6679903599        0.0933183103
 N          5.0573459523       -0.0396155596        0.1139879287
 C          5.9717400209       -0.3550809576       -0.8687768904
 C          5.6130730238       -1.2573784987       -1.8800433820
 C          6.5067542745       -1.6020137486       -2.8684829120
 C          7.7780394848       -1.0502784050       -2.8726179348
 C          8.1309928258       -0.1478900929       -1.8860745918
 C          7.2510938540        0.2203761801       -0.8780110135
 C          7.6867298393        1.2261894723        0.1672124712
 C          8.0552436066        2.5433883825       -0.5413980158
 C          8.9104647221        0.6642121338        0.9154356826
 C          6.5914796995        1.5040547658        1.1756230444
 C          6.8172265362        2.4077936752        2.2043437436
 C          5.8581808772        2.6817520971        3.1620997388
 C          4.6356406750        2.0312967010        3.1080299506
 C          4.3829641133        1.1300055648        2.0989270891
 C          5.3460033655        0.8612354653        1.1163459496
 C          2.6789282660        0.0076991347       -0.4376312900
 C          1.4421132406       -0.5923040500       -0.4663906628
 C         -2.3933152518       -2.5799458321       -0.5297899866
 C         -3.6255087816       -1.9806248796       -0.5659036644
 C         -5.9798378461       -0.3616903962        0.8637853467
 C         -5.6310369500       -1.2736881163        1.8697796540
 C         -6.5296484925       -1.6169617273        2.8541844020
 C         -7.7957109760       -1.0532486710        2.8601895077
 C         -8.1386929107       -0.1410761406        1.8791821621
 C         -7.2540811569        0.2249571342        0.8744203068
 H         -8.8200616317        2.4137143678        1.2752798935
 H         -7.1460855060        2.9348172836        1.0829695979
 H         -8.3406837567        3.3187214014       -0.1570337124
 H         -8.6668004953       -0.2264472318       -1.4131594021
 H         -9.2578161797        1.4180734598       -1.6536876522
 H         -9.7308821895        0.5156782752       -0.2178560471
 H         -7.7475613369        2.9319552184       -2.2641870061
 H         -6.0454572643        3.3905005693       -3.9492073390
 H         -3.8718404745        2.2003234487       -3.8618747784
 H         -3.4376719786        0.5901937624       -2.0668271932
 H         -2.8249503542        0.9949632829        0.8454664667
 H         -0.6233636470       -0.0784412517        0.9407340949
 H          2.2564946305       -3.5836706667        0.8912807353
 H          4.4856063357       -2.4947554986        0.9619781541
 H          4.6222316248       -1.6827858661       -1.8804872790
 H          6.2115651072       -2.3007383181       -3.6362678236
 H          8.4879071275       -1.3163253972       -3.6406777180
 H          9.1222741853        0.2787474497       -1.9086134674
 H          8.3893506337        3.2884692315        0.1749835384
 H          7.1871860881        2.9364774587       -1.0672117575
 H          8.8510018958        2.3849728420       -1.2635863478
 H          9.2642338916        1.3686256276        1.6629450758
 H          8.6435026312       -0.2640381784        1.4169792862
 H          9.7251639092        0.4600771500        0.2264955909
 H          7.7680358137        2.9148478870        2.2673224044
 H          6.0660742095        3.3922869042        3.9473265177
 H          3.8799884943        2.2259392038        3.8538518070
 H          3.4349571510        0.6172525592        2.0600819334
 H          2.8165935588        1.0012587395       -0.8413275233
 H          0.6169620714       -0.0763201265       -0.9330192855
 H         -2.2536822771       -3.5895760909       -0.8844487233
 H         -4.4848980735       -2.5049550789       -0.9586762555
 H         -4.6437509994       -1.7072098467        1.8696231927
 H         -6.2422046011       -2.3233621827        3.6178935060
 H         -8.5089933126       -1.3172900407        3.6257883673
 H         -9.1253900144        0.2959184001        1.9039075266
