82
 energy: -120.398942655453 gnorm: 0.000071442656 xtb: 6.7.1 (edcfbbe)
C           -7.85226858134835        2.36663135215142        0.58717606402501
C           -7.46522208796868        1.10825039441715       -0.21105371377142
C           -8.61203345669340        0.70077883663151       -1.15408862313070
C           -6.23980650058393        1.41880440380331       -1.04878341728505
C           -6.30228040410529        2.42963713538012       -1.99836702284740
C           -5.23015109842304        2.73969669590546       -2.81389318089167
C           -4.06058023264920        2.01127343666866       -2.69657561912328
C           -3.97103700880046        1.00243938010113       -1.76089090667867
C           -5.04411917910317        0.70555193869578       -0.91532116499958
N           -4.92179441383980       -0.31031016801162        0.02232674435275
C           -3.69210370973612       -1.00646150637015        0.12548386215221
C           -2.58772874694002       -0.38902467502650        0.70606602087389
C           -1.38196487793723       -1.05660639727783        0.78977426858149
C           -1.26511803854059       -2.35679756280579        0.30056972292438
C            0.00159575494658       -3.12570912282391        0.39480926434667
O            0.00291406821137       -4.33150840109907        0.54413312920903
C            1.26642295403659       -2.35446731661849        0.29704573843628
C            2.38842105432913       -2.82697755863026        0.97689809721405
C            3.58877238318218       -2.15123582295904        0.90502909781949
C            3.69202135415141       -0.99991150687929        0.12899424951348
N            4.92084832701966       -0.29929562212638        0.05420909929319
C            5.97426204593905       -0.85587278000141       -0.65939791120766
C            5.78821103529867       -2.06133858075263       -1.34236756440423
C            6.81802690826602       -2.64190693212219       -2.05206570614613
C            8.05417484887679       -2.02377319846090       -2.10232621616825
C            8.23176452639064       -0.81683385202815       -1.45261861833371
C            7.21198259981080       -0.20928134449294       -0.73239340852410
C            7.46472434173432        1.13258855042398       -0.07251070879335
C            7.85374672922982        2.14860508307189       -1.16196242508634
C            8.60945854946483        0.97678583412107        0.94523471144002
C            6.23777896806630        1.64423060548932        0.65726172854054
C            6.29916336423153        2.86195062207858        1.32124265235178
C            5.22623824574240        3.36734457694169        2.03115885986580
C            4.05727824264508        2.63189782162642        2.10100729929119
C            3.96887509377678        1.41963237087441        1.44996858578455
C            5.04226099480268        0.91998068707641        0.70638551455890
C            2.58350740362493       -0.54161922892588       -0.57766880165099
C            1.37866473194092       -1.21043412369533       -0.49173405137117
C           -2.38337432205590       -2.98180003337200       -0.24987535112979
C           -3.58462793630506       -2.31093677825336       -0.34873471335795
C           -5.97362026532356       -0.66909723054334        0.85477234791205
C           -5.78653909038276       -1.66575432866208        1.81697200667117
C           -6.81471901560587       -2.04835176898381        2.65226249836852
C           -8.05009231990997       -1.43518168634656        2.54950808181198
C           -8.22898763516915       -0.42983356294308        1.61797343672598
C           -7.21097046017895       -0.02380612990229        0.76564261460256
H           -8.05313530062057        3.20188713344595       -0.07794814908179
H           -8.74055445412099        2.18866459356277        1.18674595307313
H           -7.03870700796227        2.64645414803196        1.25397763559430
H           -8.32935693085283       -0.18592514269215       -1.71857296740089
H           -8.83827264680866        1.49701607298277       -1.85779916206554
H           -9.51470405766037        0.47631991837544       -0.59269924637541
H           -7.21517035931942        2.99445708050695       -2.11177388574432
H           -5.31240266453219        3.53409519618505       -3.53978746559439
H           -3.21619607721138        2.22295356795702       -3.33557475510637
H           -3.05924255300762        0.42975537488945       -1.68811567519752
H           -2.68586894705999        0.61667384537478        1.08736757000679
H           -0.53622953876983       -0.57858034189886        1.26157946518786
H            2.29369191117249       -3.72391817292041        1.57035936961126
H            4.45572940158322       -2.50782092936596        1.44099280512736
H            4.82372279185824       -2.54481948030024       -1.32177531682622
H            6.65006680568616       -3.57550999712442       -2.56773305921704
H            8.86988517826304       -2.46990468498435       -2.65037281856882
H            9.19651998869282       -0.33636097394371       -1.51365344235231
H            8.05275680252551        3.12504401624457       -0.72913325183766
H            7.04189858537603        2.25009783450224       -1.87987824197521
H            8.74361979612307        1.82554123982660       -1.69484607378290
H            8.83506523430572        1.92517329977278        1.42484975333790
H            8.32499779827639        0.26200862272009        1.71527587840754
H            9.51299631462810        0.61721566815742        0.46080424533176
H            7.21188797129250        3.43740307265332        1.28933953313980
H            5.30752072585253        4.31933931855973        2.53300379211869
H            3.21244397271672        2.99707873729675        2.66581184857460
H            3.05759319707161        0.84642602356232        1.52448414261186
H            2.67783358985084        0.34229763666900       -1.19106017106643
H            0.52997804021743       -0.86088243500896       -1.06084871110412
H           -2.28502873129402       -3.99537922583972       -0.60858559192245
H           -4.44881283575198       -2.78790361637204       -0.78657727165134
H           -4.82260600816012       -2.14086925191111        1.91480016114078
H           -6.64612911849164       -2.82340488358564        3.38480764565985
H           -8.86438773161081       -1.72820688257739        3.19435778245388
H           -9.19338228642760        0.05162411188686        1.55889810370893
