82
 energy: -120.398951710104 gnorm: 0.000059050703 xtb: 6.7.1 (edcfbbe)
C           -7.87231067651671        2.50548029065912        0.75391517043906
C           -7.47059051939435        1.36356659116678       -0.19750135957965
C           -8.60378623632910        1.08082001133289       -1.20066606102529
C           -6.23587756468507        1.78404953362885       -0.97111465158886
C           -6.29045916714419        2.91030395510547       -1.78105470796491
C           -5.20927370748981        3.32710649555776       -2.53467912024532
C           -4.03854969131737        2.59198831971463       -2.49881563483559
C           -3.95687788717689        1.46942946149096       -1.70230132521424
C           -5.03904252422254        1.06245335131283       -0.91617985712204
N           -4.92435728435314       -0.06685326949028       -0.11756992835096
C           -3.69225233297692       -0.76492856588859       -0.08506662617098
C           -2.59816452217135       -0.21768287162940        0.57939108117733
C           -1.39149766714440       -0.88829784624405        0.60175612085886
C           -1.26328316516582       -2.12213540105119       -0.03443204666020
C            0.00258619408000       -2.89722095831207       -0.00636308563569
O            0.00328897968803       -4.11229762013349       -0.00418351757962
C            1.26739431065423       -2.12051754856893        0.02087713482653
C            2.37110963528847       -2.66902345726989        0.67287476142584
C            3.57100622297012       -1.99003694552518        0.71333369154231
C            3.69323237503915       -0.75729947351126        0.07767432399629
N            4.92306215547741       -0.05615571189630        0.11533561302729
C            5.99836042226498       -0.53867786779934       -0.61967852979402
C            5.83428848636591       -1.66597545677571       -1.43000179886461
C            6.88619102342373       -2.17332841197767       -2.16297981915270
C            8.12336954880695       -1.55756311688337       -2.10955716165783
C            8.27977053914777       -0.42455249970053       -1.33361595004455
C            7.23741549724362        0.10859512061390       -0.58719837850984
C            7.46856909778463        1.37529883045706        0.21394808230568
C            7.89112544691513        2.49617142765286       -0.75331805313308
C            8.58073253723630        1.11310560919584        1.24586137452931
C            6.21902155863381        1.81311384449816        0.95325401673660
C            6.25870401472891        2.95730936508187        1.73860234225293
C            5.16409826033397        3.39029171737319        2.46307643333913
C            3.99486483475706        2.65302018956743        2.42349430418729
C            3.92785773597075        1.51298294340877        1.65080498513778
C            5.02336062049373        1.09001914045409        0.89201587800853
C            2.60337639761511       -0.21955259394626       -0.60163814841339
C            1.39821471997406       -0.89276816459733       -0.62646933133363
C           -2.37072856445270       -2.67899177460798       -0.67295640234378
C           -3.57267650466254       -2.00332707302386       -0.70992364309722
C           -5.98535102365097       -0.53390297062550        0.64715615546238
C           -5.80629291462191       -1.64588576953468        1.47521573800768
C           -6.84364517670971       -2.13673917319295        2.23951791109219
C           -8.08059901862482       -1.51949294059071        2.19972758442447
C           -8.25172587791710       -0.40226748311070        1.40417457905173
C           -7.22435521480129        0.11395329271771        0.62582750312317
H           -8.06604788103410        3.42094920184518        0.20186014690058
H           -8.76839229328264        2.24930878560395        1.31214349218499
H           -7.06889593130852        2.69564322491097        1.46326408109335
H           -8.31028735511155        0.27681678576125       -1.87314255105257
H           -8.82462848742958        1.96211967782742       -1.79640152980522
H           -9.51243936148815        0.78211369640597       -0.68541929704561
H           -7.20415835023399        3.48287406581821       -1.83163695050887
H           -5.28537409421813        4.20974833220468       -3.15103975053468
H           -3.18708868208716        2.88730601801325       -3.09371530644439
H           -3.04411091342969        0.89374983136701       -1.69400093574907
H           -2.70553358631007        0.73571417861677        1.07534487780684
H           -0.55457119768052       -0.46779585246736        1.13940276235662
H            2.26226349574005       -3.62855703935425        1.15569339000395
H            4.42361030439077       -2.40646936100050        1.22877789528237
H            4.86976242725793       -2.14581471037428       -1.49110950744316
H            6.73453289080050       -3.04784042457212       -2.77776138565565
H            8.95621405422557       -1.94741048324577       -2.67447725215540
H            9.24580242138429        0.05681185281754       -1.31423529382066
H            8.07858449639223        3.42207839674055       -0.21674321743909
H            7.10100961839723        2.67442240667809       -1.48046740647682
H            8.79592426071710        2.22569321395135       -1.29032407775284
H            8.78798332324325        2.00572888519645        1.82951403178668
H            8.27405160338773        0.32140680280622        1.92700113252116
H            9.50034789148836        0.80619113018106        0.75549133146322
H            7.17128014090602        3.53131677089008        1.79286542833664
H            5.22875102165452        4.28674458541379        3.06051336921892
H            3.13307866914510        2.96023190307156        2.99712348247863
H            3.01589287657020        0.93614999813591        1.64047872579511
H            2.71243926713614        0.72890891773600       -1.10662176485239
H            0.56455379455522       -0.47928272298410       -1.17457214619881
H           -2.26347269032177       -3.64296586923066       -1.14722311583992
H           -4.42867881024046       -2.42683289250688       -1.21383361139389
H           -4.84147798723353       -2.12651754779728        1.52505036101397
H           -6.68085330412964       -2.99952577788660        2.86788268291189
H           -8.90201936200769       -1.89624571274899        2.78971288395527
H           -9.21741729598388        0.08010231201279        1.39498375710642
