  55
  -91.1020327200000       0.437655862487330      !
 C         -5.1685365304        3.1431860500       -2.0387958237
 C         -3.7905263879        3.1628762518       -2.1064178648
 C         -3.0396579795        2.2419533455       -1.3913466136
 C         -3.6567282800        1.2929615378       -0.5861125930
 C         -5.0572211986        1.2597992557       -0.5516665837
 C         -5.8008624370        2.1808640556       -1.2650840845
 O         -5.7542627252        0.3185208009        0.1644658657
 C         -5.0265846798       -0.6025419084        0.8761720827
 C         -5.7408360866       -1.5348025650        1.6050761102
 C         -5.0784611055       -2.4804368155        2.3740038148
 C         -3.6995760982       -2.4726998828        2.4202185703
 C         -2.9781190074       -1.5403123523        1.6899909052
 C         -3.6250677722       -0.6058965472        0.8910330396
 N         -2.9309760203        0.3493779668        0.1443731386
 C         -1.5205744054        0.3808469558        0.1531031846
 C         -0.8470817345        1.4924501962        0.6664635409
 C          0.5255859662        1.5029984341        0.6708009942
 C          1.2566175390        0.4166839817        0.1794170778
 C          0.5905391440       -0.7142081587       -0.3339829654
 C         -0.8062777634       -0.6969343982       -0.3419048752
 C          1.3579672682       -1.8463765337       -0.8349326747
 C          0.7516546762       -3.0015367855       -1.3419210470
 C          1.5002704691       -4.0604541003       -1.8076097405
 C          2.8891599260       -4.0061931325       -1.7833495934
 C          3.5127682470       -2.8850786240       -1.2874262696
 C          2.7658483822       -1.8040356588       -0.8118421603
 C          3.4541798093       -0.6417304342       -0.2925623640
 N          4.7730671680       -0.6281119544       -0.2870609388
 C          5.3903183831        0.4583199664        0.1992924091
 C          6.8001334109        0.5158809898        0.2237618247
 C          7.4255851171        1.6243392841        0.7180562227
 C          6.6822034979        2.7161307741        1.2065394261
 C          5.3171895777        2.6939945878        1.1984591158
 C          4.6369649027        1.5645757190        0.6946308733
 N          3.2968359159        1.5405018158        0.6839150002
 C          2.7003919749        0.4653160158        0.2036320912
 H         -5.7570974847        3.8598022694       -2.5895128370
 H         -3.2838959262        3.8919603179       -2.7198122098
 H         -1.9637412411        2.2581837220       -1.4667617568
 H         -6.8762059340        2.1258283715       -1.2045438166
 H         -6.8176206609       -1.4999442959        1.5617261766
 H         -5.6443797147       -3.2054408258        2.9373251435
 H         -3.1689086178       -3.1888920955        3.0284361320
 H         -1.9011768089       -1.5353161965        1.7513590351
 H         -1.4117846251        2.3251164130        1.0582201164
 H          1.0763989372        2.3435001337        1.0622522226
 H         -1.3660542247       -1.5283596621       -0.7398301111
 H         -0.3231080730       -3.0820208558       -1.3742694923
 H          1.0017351782       -4.9377789074       -2.1930688071
 H          3.4708966786       -4.8387641683       -2.1495485156
 H          4.5879759939       -2.8079640572       -1.2512973904
 H          7.3515215163       -0.3307811735       -0.1549367753
 H          8.5044011172        1.6743714413        0.7383052601
 H          7.2081485547        3.5779546347        1.5905789809
 H          4.7292022069        3.5199775378        1.5678443034
  55
  -91.1020269600000       0.434996374767912      !
 C         -5.1380674794        1.4561323679       -3.0695199578
 C         -3.7597623420        1.5131271634       -3.0978341725
 C         -3.0183354594        1.1224565003       -1.9929008251
 C         -3.6447165173        0.6579886004       -0.8431651643
 C         -5.0459077358        0.6349324307       -0.8134838784
 C         -5.7799577951        1.0230398409       -1.9184982051
 O         -5.7539776442        0.2502393937        0.2980490453
 C         -5.0369926653       -0.1455299361        1.3999595674
 C         -5.7600875976       -0.5538637971        2.5048848551
 C         -5.1060308464       -0.9976215254        3.6449928611
 C         -3.7271200299       -1.0461968278        3.6621881129
 C         -2.9968826569       -0.6359936405        2.5569972454
 C         -3.6359718024       -0.1587054843        1.4196440480
 N         -2.9306926289        0.2589465045        0.2888555556
 C         -1.5199829978        0.2865277972        0.2996740203
 C         -0.8446118763        1.1293954172        1.1863596102
 C          0.5280290511        1.1394205032        1.1899928484
 C          1.2570324468        0.3261335130        0.3164736316
 C          0.5889333333       -0.5204236438       -0.5907770317
 C         -0.8079913266       -0.5231676548       -0.5684897682
 C          1.3544784399       -1.3602518939       -1.5020289120
 C          0.7464242627       -2.2027859514       -2.4397872776
 C          1.4933074237       -2.9910379497       -3.2879415097
 C          2.8821115113       -2.9670845248       -3.2321188483
 C          3.5075196641       -2.1439608511       -2.3249371113
 C          2.7623763747       -1.3380471910       -1.4600599468
 C          3.4526597301       -0.4765960019       -0.5242567173
 N          4.7715216340       -0.4778985488       -0.5058614791
 C          5.3907218306        0.3317392059        0.3652308213
 C          6.8005861278        0.3618382493        0.4193247487
 C          7.4281868606        1.1881711887        1.3066950531
 C          6.6869160844        2.0146272291        2.1731536743
 C          5.3219484543        2.0102792523        2.1483304518
 C          4.6394517813        1.1684447715        1.2440391065
 N          3.2993443213        1.1597101242        1.2190752183
 C          2.7009422489        0.3584955250        0.3573899084
 H         -5.7193419525        1.7546276451       -3.9275551901
 H         -3.2453223401        1.8659326171       -3.9784783175
 H         -1.9421061434        1.1899097369       -2.0234158741
 H         -6.8557320698        0.9848841709       -1.8552770116
 H         -6.8365541166       -0.5213784646        2.4511213678
 H         -5.6786178400       -1.3113389908        4.5034987702
 H         -3.2038104769       -1.4075768983        4.5340636996
 H         -1.9199015987       -0.6942817454        2.5779069095
 H         -1.4083904493        1.7633586492        1.8540962594
 H          1.0802664274        1.7783631521        1.8607029529
 H         -1.3690089268       -1.1669231765       -1.2271123297
 H         -0.3283190825       -2.2462278966       -2.5154114427
 H          0.9934749675       -3.6307530824       -4.0005035566
 H          3.4623724759       -3.5883109905       -3.8977365235
 H          4.5828161374       -2.0958475253       -2.2557004994
 H          7.3500107196       -0.2786221726       -0.2528900982
 H          8.5069031336        1.2160129217        1.3520208597
 H          7.2144961167        2.6573348564        2.8627464889
 H          4.7357792792        2.6355122883        2.8040447521
  55
  -91.1008661000000       0.127347762744757      !
 C         -5.1174761753        2.3626492362       -2.6791100824
 C         -3.7385619192        2.3721334416       -2.7192501292
 C         -3.0053515222        1.6848173063       -1.7626032841
 C         -3.6474145337        0.9789330881       -0.7545564399
 C         -5.0486895902        0.9736884003       -0.7204535847
 C         -5.7723293372        1.6608171607       -1.6752286940
 O         -5.7577347075        0.2986500363        0.2450435789
 C         -5.0400790969       -0.3746119371        1.2054215455
 C         -5.7551196876       -1.0415888903        2.1807454285
 C         -5.0912994982       -1.7435803596        3.1786265365
 C         -3.7121199471       -1.7725545560        3.1927567183
 C         -2.9875330071       -1.1040581515        2.2164211032
 C         -3.6386005486       -0.3982682130        1.2140850797
 N         -2.9409447136        0.2761974976        0.2167757413
 C         -1.5216251748        0.3095892422        0.2326979728
 C         -0.8587103250        1.3013185312        0.9551117154
 C          0.5151429050        1.3189096908        0.9595551222
 C          1.2474580813        0.3609860011        0.2523787415
 C          0.5882951480       -0.6437721643       -0.4832011213
 C         -0.8103058455       -0.6424134334       -0.4713912950
 C          1.3611740607       -1.6340654906       -1.2202157375
 C          0.7599354314       -2.6495771346       -1.9727239641
 C          1.5135186056       -3.5735911743       -2.6633589240
 C          2.9022621142       -3.5183418582       -2.6285439430
 C          3.5210453284       -2.5316581500       -1.8969236757
 C          2.7690091212       -1.5881537566       -1.1917690966
 C          3.4514763845       -0.5631717684       -0.4319008676
 N          4.7707689663       -0.5485785084       -0.4162412919
 C          5.3824222092        0.4094291178        0.2939761414
 C          6.7923293343        0.4607439181        0.3406236454
 C          7.4117128141        1.4381698378        1.0649211573
 C          6.6626196344        2.4012377554        1.7690088660
 C          5.2979057366        2.3814525350        1.7460906601
 C          4.6235684185        1.3845624074        1.0086393449
 N          3.2837365436        1.3596665804        0.9863662211
 C          2.6930354954        0.4104943981        0.2858298337
 H         -5.6922259428        2.8960328812       -3.4197846665
 H         -3.2179273219        2.9141350602       -3.4938617813
 H         -1.9263939544        1.6960131492       -1.7962369163
 H         -6.8489464357        1.6374437140       -1.6178845332
 H         -6.8321676644       -1.0014942430        2.1447177812
 H         -5.6593690853       -2.2614098877        3.9354011610
 H         -3.1847302721       -2.3151592541        3.9624025716
 H         -1.9083544948       -1.1289160971        2.2305176399
 H         -1.4305918416        2.0383545822        1.4983784396
 H          1.0641026663        2.0694910813        1.5057644566
 H         -1.3711004506       -1.3869541004       -1.0131671149
 H         -0.3145780661       -2.7242424905       -2.0243498030
 H          1.0191794059       -4.3451266939       -3.2352036449
 H          3.4877351702       -4.2449671505       -3.1717679160
 H          4.5959757636       -2.4577829751       -1.8463391142
 H          7.3478245515       -0.2859331261       -0.2056532026
 H          8.4902700697        1.4819969079        1.1050411406
 H          7.1843634315        3.1611029481        2.3321349162
 H          4.7059355147        3.1095706695        2.2787571489
