87
 energy: -129.905341065565 gnorm: 0.000070868312 xtb: 6.7.1 (edcfbbe)
C            7.14549048598943        2.81739321977318        0.27305885665592
C            5.88419712404278        2.12827533912286       -0.14592065852621
C            4.84437327632021        2.87693849591004       -0.70626874000511
C            3.65296875816677        2.29840549439269       -1.10214556209840
C            3.50979804723501        0.92701743841691       -0.94228167015079
C            4.54450807198619        0.15322350725051       -0.36302700329781
C            5.72720014980003        0.75810780418951        0.03010638766096
C            4.06528616751487       -1.20222216769606       -0.32522133913922
C            4.62361437021981       -2.40145759694830        0.08422559072374
C            3.90222664489395       -3.58033298452761       -0.07876923965188
C            4.46649208486358       -4.89233122168640        0.36991713213286
C            2.63951996001305       -3.54219083084087       -0.68100673461055
C            2.06027642020544       -2.35860558896925       -1.09361083438546
C            2.76146890184647       -1.17998031973322       -0.88010799293811
N            2.43539518794662        0.11097918145454       -1.23118885200576
C            1.21294177234078        0.52933255075625       -1.76288293702542
C            1.20461908401009        1.31662039088790       -2.89801701884006
C            0.00215131819650        1.73117483253666       -3.47122410025147
C           -1.20079211196166        1.31596048827603       -2.89972574813151
C           -1.21027325491001        0.52845879522912       -1.76468674533686
N           -2.43305291100145        0.10902118267989       -1.23485472316420
C           -2.75768097332291       -1.18208498491200       -0.88301055446418
C           -2.05449891568058       -2.35985252756627       -1.09460136446551
C           -2.63250855147783       -3.54392807372921       -0.68169095857243
C           -3.89588638339464       -3.58334346165437       -0.08084685833854
C           -4.45894992193074       -4.89593568336999        0.36760133704532
C           -4.61903105510806       -2.40536016100724        0.08059022829946
C           -4.06196276501370       -1.20562353930617       -0.32915707482041
C           -4.54266708914718        0.14922849307007       -0.36780985909853
C           -5.72584433146052        0.75316234569573        0.02536631353946
C           -5.88397057063560        2.12320610657482       -0.15056526392759
C           -7.14573268413592        2.81126784755389        0.26874075202263
C           -4.84483033120221        2.87275986801572       -0.71098334442236
C           -3.65292717556737        2.29520895745435       -1.10689404487867
C           -3.50852912138254        0.92399082985094       -0.94685018227710
C            0.00104832037997        0.09704181525839       -1.13982071969795
P            0.00066961409314       -0.35034400889092        0.63930842126041
O            0.00492123357476       -1.80409256447219        0.90729289705730
C            1.40946697903889        0.47442659067127        1.43029238408390
C            2.25209997942814       -0.33256186920259        2.19487033752841
C            3.31856713995522        0.21216778327523        2.87737149941901
C            3.55889437528041        1.57881745744964        2.81453612156005
C            2.72990449638090        2.38718522944004        2.04981021566027
C            1.66943502400806        1.84369734296627        1.35505915773948
C           -1.41356383426550        0.46535490637869        1.43001005349075
C           -1.67939470966540        1.83379354241224        1.36009290798507
C           -2.74457683070619        2.36944058084729        2.05369089939282
C           -3.57254578914118        1.55401375181848        2.81206630505899
C           -3.32580296614844        0.18832232804077        2.87031051889725
C           -2.25469242663128       -0.34861611895228        2.18893318399867
H            7.88359558503264        2.10192413754581        0.62528262465884
H            6.93708197526066        3.52546133068386        1.07500485376779
H            7.56783799049141        3.37832245341090       -0.55971946625126
H            4.97615356493547        3.94244639232975       -0.82479451738905
H            2.85728641602991        2.90101989247990       -1.51205178084281
H            6.51623276378556        0.17033747098816        0.47445701928986
H            5.61106320231413       -2.42141928972572        0.52086659582537
H            5.49402280434487       -4.78270904086538        0.70639899449689
H            4.43488367154949       -5.61867484433538       -0.44095982253120
H            3.87179153035945       -5.29088674201035        1.19218738231423
H            2.10268746510411       -4.46796994112744       -0.82575686422074
H            1.09490443268543       -2.35013912402657       -1.57252063107923
H            2.14199600560940        1.57146032401837       -3.37069577827762
H            0.00263182800987        2.32767453456605       -4.36837640351978
H           -2.13765122316799        1.57029032102351       -3.37369558217577
H           -1.08856855416001       -2.35038953682493       -1.57237601523506
H           -2.09420231125330       -4.46906510822413       -0.82504875108181
H           -3.86041984710486       -5.29721115788472        1.18574117285333
H           -4.43219347357624       -5.62020866546327       -0.44536488010132
H           -5.48471414872870       -4.78628453540288        0.70942756556948
H           -5.60682760489229       -2.42634700680423        0.51639482386128
H           -6.51432925577985        0.16473918664137        0.46982551238475
H           -6.93752002096346        3.52044670103831        1.06974451602508
H           -7.56946036152212        3.37079737022450       -0.56427598546307
H           -7.88269374219971        2.09529423211897        0.62232350590925
H           -4.97749575859938        3.93816573419406       -0.82944784406687
H           -2.85770123697466        2.89853294280192       -1.51665618538693
H            2.04451660104720       -1.39325702266526        2.23577641294926
H            3.96450737135555       -0.42505092289173        3.46462697765205
H            4.38843109332732        2.00995941881337        3.35444776238760
H            2.91944613148562        3.44953354482047        1.99037009719171
H            1.05083093761199        2.47827151282355        0.73783637269257
H           -1.06145287212651        2.47396994194346        0.74807632202763
H           -2.93870572720295        3.43117263954900        1.99824235676345
H           -4.40618891290299        1.97893203224027        3.35057777087242
H           -3.97053096104914       -0.45433467414418        3.45294901810281
H           -2.04224263743471       -1.40847746519764        2.22627166286156
