87
 energy: -130.009175258972 gnorm: 0.000078053698 xtb: 6.7.1 (edcfbbe)
C            7.01408516867017        3.04094852292336        0.20930023816472
C            5.78454295942910        2.27935286141647       -0.19052944410894
C            4.71618635744405        2.96286666792061       -0.78064081265659
C            3.55573373436042        2.32233498926215       -1.16559313240510
C            3.47254520728161        0.95357821200445       -0.96063525818964
C            4.53848957216319        0.24215070719225       -0.37005539531603
C            5.69151500942236        0.91391862353189        0.01462336393613
C            4.12904002380607       -1.13371889425934       -0.31144485868664
C            4.75584722723661       -2.30033449622092        0.10833443006520
C            4.10168089650433       -3.51142455795449       -0.03307726166176
C            4.73836962717029       -4.79285169762639        0.41997217426617
C            2.83306908105678       -3.54630475456684       -0.62293848642353
C            2.18755507083439       -2.40271973881584       -1.04612434654088
C            2.82770533086329       -1.18964112539217       -0.85363620904620
N            2.42767645012721        0.08507957161450       -1.21408663899350
C            1.20225727478098        0.42322847474651       -1.79781126048402
C            1.19546245066897        1.02993283474824       -3.05122279890008
C           -0.00182232124365        1.35435792332481       -3.66131337073927
C           -1.19809064930632        1.02775324961703       -3.05036501070857
C           -1.20279704140183        0.42097893485958       -1.79700597281532
N           -2.42713422966046        0.08033050891642       -1.21236798682623
C           -2.82510772595466       -1.19552523274327       -0.85363176225049
C           -2.18330206832460       -2.40736121284365       -1.04838215125171
C           -2.82705312773974       -3.55260271794090       -0.62697684884932
C           -4.09551694257687       -3.52054158820600       -0.03664144782738
C           -4.73003446962436       -4.80349170682740        0.41517559257030
C           -4.75129628314910       -2.31059406236899        0.10718370979174
C           -4.12632085908121       -1.14236785333513       -0.31086265892444
C           -4.53797778786897        0.23294268438011       -0.36757862294474
C           -5.69193768103517        0.90242927390869        0.01825229283117
C           -5.78728091142145        2.26793498381914       -0.18544092043529
C           -7.01814520468194        3.02691728453484        0.21531337681832
C           -4.72036401434741        2.95378677481731       -0.77541207976081
C           -3.55898828696738        2.31555907467763       -1.16142903962865
C           -3.47341713288240        0.94677023508788       -0.95776181590217
C            0.00020604567123        0.15732582122838       -1.13255541709143
P            0.00056578207121       -0.40415684849759        0.62200278938220
O            0.00001424284857       -1.85985741742099        0.84144521070316
C            1.42553420100092        0.40597486761615        1.42183664289231
C            2.22893454803129       -0.41055537373222        2.20610159436549
C            3.29482298703259        0.12353367780594        2.90672571167873
C            3.55340940834936        1.48218951828403        2.83706260031113
C            2.75108929097196        2.30119029929628        2.05973734989704
C            1.69229350774336        1.76705006641631        1.34904665249826
C           -1.42383995031643        0.40703565579849        1.42173182605226
C           -1.68971807294272        1.76826020130263        1.34850180003491
C           -2.74831471326269        2.30327389596616        2.05882213685173
C           -3.55133527651316        1.48499655516330        2.83618989169187
C           -3.29357523077332        0.12621248639692        2.90634790084166
C           -2.22785891836070       -0.40875739183301        2.20612920820969
H            7.49820231766402        3.46810589607558       -0.66894884929559
H            7.72541461823683        2.39270501549401        0.71446529991266
H            6.75366345934597        3.86132991839510        0.87700349145047
H            4.80429809501911        4.02899481618552       -0.93471094110510
H            2.73971932865161        2.87341239438308       -1.60900102310645
H            6.50540394485439        0.37087752145903        0.47225256528213
H            5.74823161052438       -2.25868978052198        0.53327948519593
H            5.73890504070472       -4.61462435740264        0.80587659832788
H            4.80331689569207       -5.49986742158657       -0.40640600262737
H            4.13980304249318       -5.25401558750573        1.20553256531759
H            2.34561535035012       -4.50211343475680       -0.75234654464355
H            1.21479921664054       -2.45568799278416       -1.51106073423239
H            2.13729883487877        1.23209316927325       -3.53871939502098
H           -0.00260056878727        1.83092194170432       -4.62960630375547
H           -2.14066456376489        1.22822223091134       -3.53713514820439
H           -1.21067881679408       -2.45813275877343       -1.51385472776601
H           -2.33832842635534       -4.50748981094398       -0.75840551571241
H           -4.78047272735069       -5.51528983526241       -0.40801804300026
H           -5.73619271328340       -4.62933661894957        0.78811729908209
H           -4.13835740234076       -5.25672226064170        1.21059901811379
H           -5.74360982487526       -2.27110680573339        0.53250332798779
H           -6.50476078305417        0.35760482086563        0.47565737438702
H           -6.75800159623917        3.85360944857017        0.87520672135441
H           -7.50906599520927        3.44487161544669       -0.66362819159869
H           -7.72372066733050        2.37923026601172        0.72919961859888
H           -4.81033538609670        4.01990349689730       -0.92846437826818
H           -2.74406250406433        2.86837114794066       -1.60467775398752
H            2.00763604526169       -1.46801618685906        2.24471245890831
H            3.92175526290984       -0.52075022475688        3.50529465041721
H            4.38257397506154        1.90402464641468        3.38505531672079
H            2.95557807115709        3.35968771840898        2.00040599654312
H            1.08595178896324        2.40733025360290        0.72641684482001
H           -1.08288915965633        2.40793792310711        0.72572657439477
H           -2.95213786144789        3.36188283561547        1.99914161230235
H           -4.38033301178642        1.90750100245102        3.38391419449113
H           -3.92093785179171       -0.51744721783485        3.50513523914908
H           -2.00713367558911       -1.46632188381225        2.24520477593795
