87
 energy: -129.905325309482 gnorm: 0.000065479856 xtb: 6.7.1 (edcfbbe)
C            7.10462601776634        2.88103801446846        0.25918552478439
C            5.85146590082423        2.17489450655079       -0.15591789577292
C            4.80533929819623        2.90799695421128       -0.72489373447990
C            3.62428169109732        2.31204081920758       -1.12628765848803
C            3.49899898764893        0.93952098734808       -0.96256654835637
C            4.54136415944869        0.18036252910110       -0.37772226823585
C            5.71321699203013        0.80277984410944        0.02100810247452
C            4.07840631516080       -1.18050673651789       -0.33686137229409
C            4.64989704540628       -2.37182769729189        0.07765502487617
C            3.94172133218093       -3.55927436550849       -0.08079644698945
C            4.52117534741640       -4.86290038695190        0.37296880708564
C            2.67820586282182       -3.53789734447104       -0.68240514294089
C            2.08552464417387       -2.36257652902172       -1.10022323980892
C            2.77482935044975       -1.17582254179718       -0.89350618248692
N            2.43527846240208        0.10962815071734       -1.25075656897183
C            1.21025575788823        0.51570618168540       -1.78599872874966
C            1.20083463299723        1.29156602875954       -2.92922255536285
C           -0.00176376711098        1.69883940956759       -3.50675996961243
C           -1.20339119004361        1.28981471134826       -2.92845986434817
C           -1.21096779652200        0.51381636531124       -1.78531953932577
N           -2.43503763639260        0.10550386991065       -1.24957316487864
C           -2.77208522680936       -1.18069391632062       -0.89255759038994
C           -2.08081987943297       -2.36619483301365       -1.10000433542083
C           -2.67123186396729       -3.54267918968778       -0.68223173472790
C           -3.93440374765816       -3.56645799817169       -0.08000445232071
C           -4.51131542930816       -4.87124866258350        0.37363489481488
C           -4.64464156343808       -2.38033020147334        0.07901826917334
C           -4.07544567115919       -1.18791554525946       -0.33548913820584
C           -4.54108682037882        0.17202782005000       -0.37612765493362
C           -5.71429035933537        0.79189365970107        0.02256541145775
C           -5.85552144455703        2.16368658702360       -0.15443699937531
C           -7.11029802826228        2.86704774020623        0.26050816010455
C           -4.81092024078234        2.89899117789875       -0.72338621902272
C           -3.62857702823129        2.30556630757484       -1.12476750138319
C           -3.50034748022609        0.93329886024058       -0.96110775066330
C            0.00018355571856        0.08689899202953       -1.15846632044404
P            0.00081675171351       -0.36577552194903        0.61958952743685
O            0.00085515462455       -1.82101394855644        0.87971563002355
C            1.41370410621940        0.44845290143413        1.41498442121945
C            2.25864488902512       -0.36949047505465        2.16538921973901
C            3.33238524163522        0.16395789945634        2.84549510805136
C            3.57793514809463        1.53009935274220        2.79487911171430
C            2.74437719408001        2.34993236594656        2.04738860399982
C            1.67683983210563        1.81776902441491        1.35467328901548
C           -1.41194860858675        0.44875356764557        1.41485753861276
C           -1.67585765840747        1.81781267671320        1.35230169947251
C           -2.74302337782982        2.35065501965741        2.04507781645772
C           -3.57538908922444        1.53170410280412        2.79483293186434
C           -3.32921626318259        0.16574458372763        2.84747883384840
C           -2.25583012398175       -0.36835371790105        2.16731274928718
H            7.61073085242653        3.29351779220955       -0.61373041426008
H            7.78542032568918        2.20339459859454        0.76717037920302
H            6.86975336970464        3.70964037220853        0.92588252863092
H            4.92295544319897        3.97495895015654       -0.84511487381441
H            2.82231725826244        2.90243318153281       -1.54175907551515
H            6.50789059898811        0.22714368204159        0.47111947959744
H            5.63720656056227       -2.37897844350021        0.51498950453357
H            5.54611502756443       -4.73919733607126        0.71251642070977
H            4.50179177640991       -5.59137546760253       -0.43641887683914
H            3.92898708724857       -5.26740220877490        1.19414050087745
H            2.15146062555239       -4.47021113666895       -0.82210746173244
H            1.11889708242877       -2.36675410977547       -1.57701141423020
H            2.13841916402674        1.54288009113886       -3.40345349790363
H           -0.00247495108232        2.28578981186834       -4.41015270481338
H           -2.14163619864191        1.53979591421810       -3.40208512791873
H           -1.11444025665037       -2.36854495351100       -1.57730714481695
H           -2.14289983452966       -4.47401975584817       -0.82243566621421
H           -4.49188799472865       -5.59912675942693       -0.43629338077827
H           -5.53600705774331       -4.74931859397105        0.71456325938229
H           -3.91745548909530       -5.27543382619460        1.19374902883562
H           -5.63177412837589       -2.38932304550337        0.51671602275184
H           -6.50770005432750        0.21453482550490        0.47269698782544
H           -6.87741363442260        3.69589114503613        0.92760210803211
H           -7.61699871594647        3.27877017958602       -0.61241584248106
H           -7.78980947473894        2.18776029232046        0.76801984273667
H           -4.93082903598871        3.96569238699983       -0.84365334385268
H           -2.82792678233732        2.89770800646170       -1.54028508269459
H            2.04781166292940       -1.42987338081132        2.19642834191312
H            3.98051986368737       -0.48223604088393        3.42038224782993
H            4.41535386697532        1.95203743348615        3.32987372067257
H            2.93652849125358        3.41232993331778        1.99895996881823
H            1.05532451170201        2.46159298006788        0.75014387667410
H           -1.05535059624801        2.46079833246295        0.74582063917686
H           -2.93580681293198        3.41285968182333        1.99495600563794
H           -4.41241125188445        1.95419374231367        3.33001320156186
H           -3.97657240509394       -0.47975980146419        3.42401479157371
H           -2.04451865008330       -1.42860075989475        2.19982497681784
