  102
       -170.21794409
 C         11.0857248116       -3.0100136098       -1.6060865022
 C          9.7390873954       -3.2647929400       -1.4438084583
 C          8.8903635187       -2.2770817778       -0.9677188150
 C          9.3773039006       -1.0194110899       -0.6334656397
 C         10.7385121484       -0.7592172663       -0.8413023860
 C         11.5814387130       -1.7485316932       -1.3129270335
 O         11.2970030256        0.4729953332       -0.6125176209
 C         10.4720815443        1.4651402801       -0.1460471579
 C         11.0523908586        2.6970472594        0.0943403974
 C         10.2946282936        3.7413573520        0.6023808642
 C          8.9602184119        3.5350012225        0.8877986417
 C          8.3732294236        2.3023186328        0.6462420550
 C          9.1086518381        1.2567018780        0.1015311393
 N          8.5491848341        0.0003217931       -0.1543401464
 C          7.1838065412       -0.2351162601        0.0889047892
 C          6.7885727688       -1.2039014885        1.0116885486
 C          5.4508378658       -1.4198411152        1.2616744927
 C          4.4809633313       -0.6665029316        0.5982396139
 C          3.0679688323       -0.8733275196        0.8798011526
 N          2.7239264406       -1.7835763228        1.7890883964
 N          1.4769321642       -2.1238819785        1.9011375481
 C          0.5456410804       -1.5018236542        1.2079549518
 C         -0.8608150257       -1.9124404501        1.1939249562
 C         -1.6443366822       -1.9115451339        2.3423260206
 C         -3.0191245726       -2.0236411072        2.2439623559
 C         -3.6283107217       -2.1551066151        0.9992323836
 N         -5.0329634421       -2.1034109499        0.8762593203
 C         -5.7189476483       -3.1161736310        0.2010597139
 C         -5.1265978358       -4.3410003492       -0.0793424964
 C         -5.8291974256       -5.3340181900       -0.7449357490
 C         -7.1372017773       -5.1224784764       -1.1314190023
 C         -7.7540760837       -3.9181356925       -0.8261853327
 C         -7.0597803429       -2.9274186435       -0.1570498597
 O         -7.7483962173       -1.7816612742        0.1487112494
 C         -7.0518015190       -0.7734321927        0.7635046692
 C         -7.7415931848        0.4004394759        1.0051795606
 C         -7.1047381467        1.4825566343        1.5921688134
 C         -5.7700063196        1.3806044331        1.9253639617
 C         -5.0771581288        0.2015693684        1.6943172788
 C         -5.7038587540       -0.8978377148        1.1233006981
 C         -2.8321430867       -2.2880318926       -0.1362848413
 C         -1.4658683093       -2.1503851185       -0.0399598635
 C          0.9080780474       -0.3267855709        0.4828018707
 C         -0.1779565559        0.5701599633        0.0654741144
 C         -1.0104084506        1.0943366593        1.0536287513
 C         -2.1837031108        1.7301081249        0.7157648978
 C         -2.5687383788        1.8211481326       -0.6202111765
 N         -3.8490340032        2.3082361628       -0.9546025628
 C         -4.8097652286        1.4317915356       -1.4778498398
 C         -4.4999689967        0.1405899129       -1.8826012249
 C         -5.4746720609       -0.7023901205       -2.3949742368
 C         -6.7786992900       -0.2691288991       -2.5145046601
 C         -7.1089722895        1.0111472975       -2.0987256056
 C         -6.1421293770        1.8514595407       -1.5780120773
 O         -6.5606131999        3.0882727437       -1.1602143153
 C         -5.6239600239        3.9116942981       -0.5904223376
 C         -6.0620711556        5.1413234117       -0.1348916132
 C         -5.1651159247        6.0453516589        0.4152221149
 C         -3.8264280822        5.7171487394        0.4879401753
 C         -3.3830112932        4.4830865962        0.0371361304
 C         -4.2741888935        3.5533829434       -0.4836630031
 C         -1.6937300217        1.3843879127       -1.6107353675
 C         -0.5019819132        0.7701698199       -1.2707191447
 N          2.1767198658       -0.0779434213        0.2689999998
 C          4.8773449210        0.2960131291       -0.3313196024
 C          6.2148360258        0.5075256910       -0.5857243839
 H         11.7512621799       -3.7765491183       -1.9698843700
 H          9.3330365688       -4.2340210165       -1.6889660335
 H          7.8372877669       -2.4855016062       -0.8638259264
 H         12.6233281892       -1.5073963786       -1.4503714203
 H         12.1028464594        2.8154414131       -0.1182408002
 H         10.7545521092        4.6998631949        0.7832185052
 H          8.3613345062        4.3295424002        1.3054270404
 H          7.3344333499        2.1517586500        0.8936305609
 H          7.5413363151       -1.7726813024        1.5371148072
 H          5.1328104389       -2.1578547005        1.9807034762
 H         -1.1752587640       -1.7797735812        3.3055464918
 H         -3.6317242340       -1.9826257676        3.1321944136
 H         -4.1097322511       -4.5217809726        0.2329489415
 H         -5.3430651040       -6.2745681835       -0.9538571414
 H         -7.6862496351       -5.8884983283       -1.6557049406
 H         -8.7812468704       -3.7295628891       -1.0942320808
 H         -8.7784728454        0.4496373186        0.7144636421
 H         -7.6483707490        2.3964008090        1.7714311383
 H         -5.2568362269        2.2209460806        2.3699478231
 H         -4.0324983805        0.1381570734        1.9519476229
 H         -3.2965220088       -2.4600757537       -1.0946992964
 H         -0.8570140714       -2.2028189642       -0.9309402396
 H         -0.7400281201        0.9814194243        2.0934543307
 H         -2.8283404673        2.1280209538        1.4836837750
 H         -3.4870901759       -0.2141876075       -1.7845001903
 H         -5.2057493095       -1.7032694086       -2.6998724194
 H         -7.5400582062       -0.9198872657       -2.9138342997
 H         -8.1208776716        1.3772527672       -2.1602255239
 H         -7.1106561720        5.3755005343       -0.2260255509
 H         -5.5165921274        7.0014749063        0.7694571467
 H         -3.1128466963        6.4183785928        0.8925500038
 H         -2.3320727018        4.2427934519        0.0828301118
 H         -1.9638261109        1.5068798767       -2.6490294067
 H          0.1615206833        0.4070071760       -2.0413789357
 H          4.1210117859        0.8678459890       -0.8457874217
 H          6.5235938265        1.2463702869       -1.3105016581
