  55
        -92.57199010
 C          6.9055730545       -1.4006516207        1.6634364583
 C          6.0560768342       -2.4898223517        1.5204591929
 C          4.7513655258       -2.2769730030        1.1248620448
 C          4.3354727618       -0.9655843881        0.8702217287
 C          2.9601082226       -0.7077508747        0.4633260257
 N          1.9927257732       -1.4677424521        0.9610727418
 C          0.7066930821       -1.1949423494        0.7370903447
 C         -0.3239643224       -1.9851359352        1.2451561236
 C         -1.6509273094       -1.6384423427        1.0468274524
 C         -1.9732399551       -0.4966635736        0.3276766953
 N         -3.3340747590       -0.1450112504        0.1368187784
 C         -4.1646058548       -0.9434412143       -0.6376557932
 C         -3.6917159183       -2.0593858879       -1.3220862633
 C         -4.5483849168       -2.8355727939       -2.0833801042
 C         -5.8887715132       -2.5097563934       -2.1822512923
 C         -6.3726282641       -1.3884336240       -1.5266291011
 C         -5.5220652145       -0.6066942436       -0.7653279182
 O         -6.0597589488        0.4987373383       -0.1616204708
 C         -5.2247279616        1.2803031951        0.5918596360
 C         -5.7792701843        2.3913073361        1.2019481017
 C         -4.9954550701        3.2142526266        1.9954015521
 C         -3.6589160838        2.9136086508        2.1829926245
 C         -3.0967835574        1.8037199187        1.5759888274
 C         -3.8637708680        0.9768633519        0.7604030870
 C         -0.9686055094        0.3078652694       -0.2139541299
 C          0.3688869535       -0.0185752502       -0.0300342868
 N          1.3611272587        0.6960333000       -0.5763159227
 C          2.6296956950        0.3641241244       -0.3938305413
 C          3.6610515892        1.0994136725       -1.1207525034
 C          3.5181684303        2.4729184674       -1.3372335558
 C          4.5069631491        3.1351567040       -2.0370629565
 C          5.5962402126        2.4166068825       -2.5104373974
 C          5.6270630544        1.0499015645       -2.2718879421
 N          4.6912426138        0.4111921022       -1.6031839009
 N          5.1462618816        0.0753841856        1.0391713127
 C          6.3878518140       -0.1368707889        1.4180950144
 H          7.9335344835       -1.5264942670        1.9648075097
 H          6.4118780474       -3.4916715926        1.7153003372
 H          4.0496559164       -3.0865400495        1.0032747652
 H         -0.0637232132       -2.8591972481        1.8197912070
 H         -2.4391686059       -2.2509573448        1.4580595321
 H         -2.6454975347       -2.3122125931       -1.2579491976
 H         -4.1585687433       -3.6962097723       -2.6040961750
 H         -6.5580860097       -3.1147454072       -2.7732501147
 H         -7.4091078024       -1.0988957308       -1.5957895124
 H         -6.8272846216        2.5924107248        1.0439909703
 H         -5.4345773459        4.0784491817        2.4676139325
 H         -3.0434486932        3.5403111620        2.8094556413
 H         -2.0567293173        1.5691362042        1.7362200087
 H         -1.2211233901        1.1756788881       -0.8023379269
 H          2.6487777064        2.9823943873       -0.9535187622
 H          4.4334219927        4.1990364780       -2.2129101386
 H          6.3928462866        2.8991273597       -3.0549985945
 H          6.4395192392        0.4346427455       -2.6379177980
 H          6.9961251531        0.7512132059        1.5353774596
  55
        -92.57176985
 C          6.9576347333       -1.4446404741        1.4966173975
 C          5.9716612013       -2.2735159381        2.0277352481
 C          4.6509510640       -2.0189187948        1.7412862032
 C          4.3357185694       -0.9262392688        0.9127463855
 C          2.9628891160       -0.6406861028        0.5901850383
 N          1.9816879795       -1.2990379100        1.2232381453
 C          0.7054698416       -1.0341610742        0.9888300182
 C         -0.3333767852       -1.7215259224        1.6330686201
 C         -1.6539429958       -1.4118075742        1.3740311370
 C         -1.9755398846       -0.4072271070        0.4702846486
 N         -3.3408154354       -0.1073486586        0.2054618819
 C         -4.0556733803       -0.8671345048       -0.7068023090
 C         -3.4679263617       -1.9092380292       -1.4166997700
 C         -4.2099119052       -2.6486483676       -2.3218249400
 C         -5.5459289266       -2.3601347042       -2.5335392732
 C         -6.1454016088       -1.3208107205       -1.8383516143
 C         -5.4109414563       -0.5764068501       -0.9330805892
 O         -6.0568118209        0.4414257600       -0.2808562928
 C         -5.3295363873        1.1901534293        0.6070431712
 C         -5.9835013706        2.2211572779        1.2568010345
 C         -5.3027367897        3.0106025614        2.1712203009
 C         -3.9676500884        2.7630179549        2.4337339785
 C         -3.3053897412        1.7329242160        1.7879196375
 C         -3.9726375244        0.9341729888        0.8648516811
 C         -0.9717124199        0.3006688242       -0.1903242578
 C          0.3604734682        0.0028868159        0.0468208613
 N          1.3604917927        0.6403309617       -0.5966989872
 C          2.6109740236        0.3348001724       -0.3713841721
 C          3.6574376488        1.0166652740       -1.1675899117
 C          4.0107235062        2.3351209113       -0.8855500922
 C          4.9648445293        2.9385179282       -1.6831978100
 C          5.5157126798        2.2207284656       -2.7345705131
 C          5.0692953095        0.9257272430       -2.9460357631
 N          4.1648067234        0.3398378357       -2.1857980256
 N          5.2900652651       -0.1288913792        0.4285265130
 C          6.5500367456       -0.3820572093        0.7047196911
 H          8.0034110365       -1.6164407403        1.6954590908
 H          6.2436881012       -3.1082601360        2.6584818390
 H          3.8454773589       -2.6253098312        2.1239809572
 H         -0.0736757725       -2.4940057762        2.3385489504
 H         -2.4465462795       -1.9494538159        1.8730874195
 H         -2.4249424148       -2.1319441382       -1.2552721372
 H         -3.7351008378       -3.4527982487       -2.8621512422
 H         -6.1250601156       -2.9353763343       -3.2384609576
 H         -7.1838549181       -1.0706658316       -1.9854848774
 H         -7.0250442668        2.3888900409        1.0344037220
 H         -5.8200724539        3.8123012926        2.6740469624
 H         -3.4317429321        3.3720722064        3.1451710720
 H         -2.2650833795        1.5375487408        1.9952236536
 H         -1.2210896702        1.0739433928       -0.8994294994
 H          3.5507698472        2.8565401976       -0.0611321726
 H          5.2746607706        3.9558532202       -1.4901985684
 H          6.2696639039        2.6545824317       -3.3730370332
 H          5.4508254079        0.3249629962       -3.7616444250
 H          7.2667639273        0.3054052313        0.2727745093
  55
        -92.57159951
 C          6.9153497748       -1.0310764175        1.8635711660
 C          6.0222393776       -2.0656186353        2.1207077818
 C          4.7159738528       -1.9469282822        1.6979156203
 C          4.3348236564       -0.7854915272        1.0102726991
 C          2.9636269598       -0.6253159171        0.5680638134
 N          1.9931998543       -1.2760364285        1.2103111161
 C          0.7100232451       -1.0528348733        0.9419179357
 C         -0.3209152873       -1.7184418080        1.6110449283
 C         -1.6465537804       -1.4111119614        1.3553294003
 C         -1.9690921148       -0.4334388814        0.4263126977
 N         -3.3347990248       -0.1030976770        0.1964487165
 C         -4.0518086701       -0.7281297617       -0.8100845746
 C         -3.4681802908       -1.6677060629       -1.6539317682
 C         -4.2139621839       -2.2769875320       -2.6484024343
 C         -5.5499978316       -1.9602766351       -2.8155648648
 C         -6.1469692238       -1.0263326969       -1.9824197833
 C         -5.4090899563       -0.4124788510       -0.9865898622
 O         -6.0548954145        0.4995190348       -0.1928630664
 C         -5.3277245296        1.1094426867        0.7955937613
 C         -5.9829991540        2.0285969201        1.5949030941
 C         -5.2997673078        2.6803979227        2.6103793405
 C         -3.9594323783        2.4113183407        2.8202245516
 C         -3.2962196468        1.4920112788        2.0256369310
 C         -3.9682567851        0.8256989088        1.0057766001
 C         -0.9703460968        0.2361795137       -0.2801717211
 C          0.3657060806       -0.0617831985       -0.0498008981
 N          1.3576263060        0.5251019549       -0.7390283457
 C          2.6205235803        0.2500511517       -0.4853920322
 C          3.6516433394        0.8332068360       -1.3529000504
 C          3.6098549602        2.1911640881       -1.6707925283
 C          4.5808353472        2.6982574247       -2.5134267971
 C          5.5466678967        1.8415624074       -3.0205129704
 C          5.4806942402        0.5016628882       -2.6656795053
 N          4.5629338627        0.0113525092       -1.8593063701
 N          5.1913351296        0.2114632350        0.7940277392
 C          6.4356404766        0.0894472707        1.2012433570
 H          7.9459625586       -1.0894851794        2.1754859072
 H          6.3489607198       -2.9515235236        2.6467239196
 H          3.9802796060       -2.7148934251        1.8756995112
 H         -0.0582549207       -2.4627786973        2.3451146707
 H         -2.4353507499       -1.9243180070        1.8847838216
 H         -2.4264706530       -1.9146978270       -1.5220050435
 H         -3.7431846367       -3.0030623504       -3.2928053301
 H         -6.1323023626       -2.4349084913       -3.5893650102
 H         -7.1864961232       -0.7605304821       -2.0887646288
 H         -7.0273541158        2.2196073040        1.4067884436
 H         -5.8179928602        3.3948044744        3.2300933468
 H         -3.4199908025        2.9168640436        3.6060683594
 H         -2.2507306425        1.2829286302        2.1890115986
 H         -1.2243709608        0.9828857902       -1.0156010579
 H          2.8324812221        2.8133719358       -1.2570557036
 H          4.5845697181        3.7471991106       -2.7742516707
 H          6.3242946367        2.1994849488       -3.6770828415
 H          6.1958371147       -0.2157211707       -3.0476181415
 H          7.0783601956        0.9355461713        0.9917645226
