  55
  -92.5719901000000       0.168994786170287      !
 C          6.9055730545       -1.4006516207        1.6634364583
 C          6.0560768342       -2.4898223517        1.5204591929
 C          4.7513655258       -2.2769730030        1.1248620448
 C          4.3354727618       -0.9655843881        0.8702217287
 C          2.9601082226       -0.7077508747        0.4633260257
 N          1.9927257732       -1.4677424521        0.9610727418
 C          0.7066930821       -1.1949423494        0.7370903447
 C         -0.3239643224       -1.9851359352        1.2451561236
 C         -1.6509273094       -1.6384423427        1.0468274524
 C         -1.9732399551       -0.4966635736        0.3276766953
 N         -3.3340747590       -0.1450112504        0.1368187784
 C         -4.1646058548       -0.9434412143       -0.6376557932
 C         -3.6917159183       -2.0593858879       -1.3220862633
 C         -4.5483849168       -2.8355727939       -2.0833801042
 C         -5.8887715132       -2.5097563934       -2.1822512923
 C         -6.3726282641       -1.3884336240       -1.5266291011
 C         -5.5220652145       -0.6066942436       -0.7653279182
 O         -6.0597589488        0.4987373383       -0.1616204708
 C         -5.2247279616        1.2803031951        0.5918596360
 C         -5.7792701843        2.3913073361        1.2019481017
 C         -4.9954550701        3.2142526266        1.9954015521
 C         -3.6589160838        2.9136086508        2.1829926245
 C         -3.0967835574        1.8037199187        1.5759888274
 C         -3.8637708680        0.9768633519        0.7604030870
 C         -0.9686055094        0.3078652694       -0.2139541299
 C          0.3688869535       -0.0185752502       -0.0300342868
 N          1.3611272587        0.6960333000       -0.5763159227
 C          2.6296956950        0.3641241244       -0.3938305413
 C          3.6610515892        1.0994136725       -1.1207525034
 C          3.5181684303        2.4729184674       -1.3372335558
 C          4.5069631491        3.1351567040       -2.0370629565
 C          5.5962402126        2.4166068825       -2.5104373974
 C          5.6270630544        1.0499015645       -2.2718879421
 N          4.6912426138        0.4111921022       -1.6031839009
 N          5.1462618816        0.0753841856        1.0391713127
 C          6.3878518140       -0.1368707889        1.4180950144
 H          7.9335344835       -1.5264942670        1.9648075097
 H          6.4118780474       -3.4916715926        1.7153003372
 H          4.0496559164       -3.0865400495        1.0032747652
 H         -0.0637232132       -2.8591972481        1.8197912070
 H         -2.4391686059       -2.2509573448        1.4580595321
 H         -2.6454975347       -2.3122125931       -1.2579491976
 H         -4.1585687433       -3.6962097723       -2.6040961750
 H         -6.5580860097       -3.1147454072       -2.7732501147
 H         -7.4091078024       -1.0988957308       -1.5957895124
 H         -6.8272846216        2.5924107248        1.0439909703
 H         -5.4345773459        4.0784491817        2.4676139325
 H         -3.0434486932        3.5403111620        2.8094556413
 H         -2.0567293173        1.5691362042        1.7362200087
 H         -1.2211233901        1.1756788881       -0.8023379269
 H          2.6487777064        2.9823943873       -0.9535187622
 H          4.4334219927        4.1990364780       -2.2129101386
 H          6.3928462866        2.8991273597       -3.0549985945
 H          6.4395192392        0.4346427455       -2.6379177980
 H          6.9961251531        0.7512132059        1.5353774596
  55
  -92.5719840100000       0.167909216740027      !
 C          6.9068877041       -1.4568784556        1.5906467451
 C          6.2104325342       -2.4669424964        0.9443218420
 C          4.9027336400       -2.2396575123        0.5574070998
 C          4.3442853831       -0.9903027098        0.8225463613
 C          2.9438892704       -0.7102514734        0.4561056171
 N          1.9961837830       -1.4541013179        0.9760829844
 C          0.6980584262       -1.1798352272        0.7629385316
 C         -0.3207176470       -1.9591025736        1.2968238237
 C         -1.6526071398       -1.6215603231        1.1006357966
 C         -1.9784122411       -0.4956986138        0.3564897528
 N         -3.3415812156       -0.1512818675        0.1647903523
 C         -4.1709650441       -0.9626643766       -0.5975336731
 C         -3.6999830899       -2.0962810106       -1.2533601563
 C         -4.5557875464       -2.8839929052       -2.0039960480
 C         -5.8933148574       -2.5525912934       -2.1200800917
 C         -6.3750195273       -1.4142608673       -1.4929062056
 C         -5.5253076303       -0.6207290824       -0.7430408635
 O         -6.0603799182        0.5021132105       -0.1698532271
 C         -5.2222056586        1.3048629302        0.5579932117
 C         -5.7701226599        2.4433519469        1.1215821398
 C         -4.9838446430        3.2889114440        1.8883380318
 C         -3.6518215962        2.9822629807        2.0975879946
 C         -3.0960559130        1.8453601955        1.5362910558
 C         -3.8648449782        0.9966213700        0.7453766807
 C         -0.9845231074        0.2998868930       -0.2062422893
 C          0.3623110063       -0.0162915091       -0.0234798592
 N          1.3406727912        0.6967219497       -0.5727284510
 C          2.6243252146        0.3690192196       -0.3978107454
 C          3.6507451635        1.1012785800       -1.1021307865
 C          3.3680419066        2.3686640179       -1.6371577004
 C          4.3674819115        3.0437948860       -2.3010022146
 C          5.6199659776        2.4506186021       -2.4298281333
 C          5.7949205696        1.1846095975       -1.8911635696
 N          4.8462373961        0.5311515933       -1.2575158942
 N          5.0030786562       -0.0342515051        1.4633023306
 C          6.2466021728       -0.2616191468        1.8339817620
 H          7.9311252241       -1.5933479323        1.9012960074
 H          6.6813735397       -3.4194260295        0.7460615127
 H          4.3187309644       -2.9968078681        0.0589966654
 H         -0.0528839652       -2.8222061132        1.8847552466
 H         -2.4368938488       -2.2265336171        1.5292729130
 H         -2.6559892259       -2.3548436428       -1.1751013657
 H         -4.1677169592       -3.7604300614       -2.4996291043
 H         -6.5623421719       -3.1680005905       -2.7003285781
 H         -7.4091530236       -1.1206057199       -1.5755092557
 H         -6.8151833942        2.6465601320        0.9507237872
 H         -5.4174833354        4.1753152533        2.3232043923
 H         -3.0339698339        3.6271261303        2.7029418979
 H         -2.0591981910        1.6081590845        1.7127916578
 H         -1.2431959061        1.1568038735       -0.8077083981
 H          2.3786337896        2.7780136707       -1.5093085880
 H          4.1828516279        4.0248705643       -2.7157569335
 H          6.4289854831        2.9513400888       -2.9374798605
 H          6.7403929730        0.6634343140       -1.9766122661
 H          6.7339953689        0.5544149516        2.3521812125
  55
  -92.5719245000000       0.157661492440508      !
 C          6.9692148418       -1.2074804173        1.6528110053
 C          5.9831079542       -1.9241813089        2.3268593171
 C          4.6612750954       -1.7080225138        2.0149426939
 C          4.3454500707       -0.7694901581        1.0154080058
 C          2.9705410710       -0.5293578923        0.6650549713
 N          1.9941541845       -1.0444905735        1.4256084562
 C          0.7164948146       -0.8203221745        1.1597040136
 C         -0.3170737012       -1.3463145149        1.9480241584
 C         -1.6392753399       -1.0876480485        1.6459971358
 C         -1.9697806919       -0.2921629097        0.5554997006
 N         -3.3345291815       -0.0398580382        0.2540910241
 C         -3.9363290174       -0.6481848135       -0.8384948411
 C         -3.2388778458       -1.5028696723       -1.6866477468
 C         -3.8719579895       -2.0938694372       -2.7666537918
 C         -5.2100166309       -1.8486397965       -3.0154727621
 C         -5.9236547897       -1.0110962126       -2.1722977315
 C         -5.2983116144       -0.4163619133       -1.0912101402
 O         -6.0637756271        0.3878619353       -0.2880350579
 C         -5.4510604558        0.9857201165        0.7812639739
 C         -6.2266042865        1.8070741423        1.5796389488
 C         -5.6629983370        2.4543888373        2.6683596181
 C         -4.3194978990        2.2831492112        2.9479785204
 C         -3.5371187273        1.4612525597        2.1550536365
 C         -4.0899573451        0.7910581039        1.0679698735
 C         -0.9697366810        0.2549262835       -0.2493063271
 C          0.3638571274        0.0020951395        0.0278190235
 N          1.3589186683        0.4978757053       -0.7364702314
 C          2.6116303570        0.2477086813       -0.4603105533
 C          3.6524982077        0.7701823289       -1.3758839495
 C          4.0168643095        2.1148509306       -1.3325966445
 C          4.9638477698        2.5623993536       -2.2345032424
 C          5.4979297213        1.6675139269       -3.1499719395
 C          5.0432292871        0.3584153429       -3.1253274973
 N          4.1446323274       -0.0784786690       -2.2642945327
 N          5.3002332902       -0.0778746285        0.3906544372
 C          6.5611465667       -0.2920074509        0.6950725939
 H          8.0157442367       -1.3532546734        1.8679236665
 H          6.2555871154       -2.6431450542        3.0862502574
 H          3.8552160084       -2.2322237802        2.5034805270
 H         -0.0521141688       -1.9601715058        2.7935775993
 H         -2.4268650650       -1.5035252050        2.2570239456
 H         -2.1972527246       -1.7035468305       -1.4932970457
 H         -3.3102823042       -2.7508252096       -3.4123173676
 H         -5.7041362298       -2.3077314572       -3.8569952179
 H         -6.9700986884       -0.8078860023       -2.3340625228
 H         -7.2685111092        1.9283828923        1.3301957095
 H         -6.2743775879        3.0923030053        3.2866673593
 H         -3.8697022279        2.7916270744        3.7866238513
 H         -2.4880031408        1.3360197034        2.3717172080
 H         -1.2232357871        0.8751296530       -1.0945795780
 H          3.5707565315        2.7757686244       -0.6067250539
 H          5.2812657115        3.5957191431       -2.2263308307
 H          6.2448694115        1.9778515442       -3.8641262609
 H          5.4128414110       -0.3794737230       -3.8261794293
 H          7.2785911364        0.3042179882        0.1453750381
  55
  -92.5717698500000       0.133860799397762      !
 C          6.9576347333       -1.4446404741        1.4966173975
 C          5.9716612013       -2.2735159381        2.0277352481
 C          4.6509510640       -2.0189187948        1.7412862032
 C          4.3357185694       -0.9262392688        0.9127463855
 C          2.9628891160       -0.6406861028        0.5901850383
 N          1.9816879795       -1.2990379100        1.2232381453
 C          0.7054698416       -1.0341610742        0.9888300182
 C         -0.3333767852       -1.7215259224        1.6330686201
 C         -1.6539429958       -1.4118075742        1.3740311370
 C         -1.9755398846       -0.4072271070        0.4702846486
 N         -3.3408154354       -0.1073486586        0.2054618819
 C         -4.0556733803       -0.8671345048       -0.7068023090
 C         -3.4679263617       -1.9092380292       -1.4166997700
 C         -4.2099119052       -2.6486483676       -2.3218249400
 C         -5.5459289266       -2.3601347042       -2.5335392732
 C         -6.1454016088       -1.3208107205       -1.8383516143
 C         -5.4109414563       -0.5764068501       -0.9330805892
 O         -6.0568118209        0.4414257600       -0.2808562928
 C         -5.3295363873        1.1901534293        0.6070431712
 C         -5.9835013706        2.2211572779        1.2568010345
 C         -5.3027367897        3.0106025614        2.1712203009
 C         -3.9676500884        2.7630179549        2.4337339785
 C         -3.3053897412        1.7329242160        1.7879196375
 C         -3.9726375244        0.9341729888        0.8648516811
 C         -0.9717124199        0.3006688242       -0.1903242578
 C          0.3604734682        0.0028868159        0.0468208613
 N          1.3604917927        0.6403309617       -0.5966989872
 C          2.6109740236        0.3348001724       -0.3713841721
 C          3.6574376488        1.0166652740       -1.1675899117
 C          4.0107235062        2.3351209113       -0.8855500922
 C          4.9648445293        2.9385179282       -1.6831978100
 C          5.5157126798        2.2207284656       -2.7345705131
 C          5.0692953095        0.9257272430       -2.9460357631
 N          4.1648067234        0.3398378357       -2.1857980256
 N          5.2900652651       -0.1288913792        0.4285265130
 C          6.5500367456       -0.3820572093        0.7047196911
 H          8.0034110365       -1.6164407403        1.6954590908
 H          6.2436881012       -3.1082601360        2.6584818390
 H          3.8454773589       -2.6253098312        2.1239809572
 H         -0.0736757725       -2.4940057762        2.3385489504
 H         -2.4465462795       -1.9494538159        1.8730874195
 H         -2.4249424148       -2.1319441382       -1.2552721372
 H         -3.7351008378       -3.4527982487       -2.8621512422
 H         -6.1250601156       -2.9353763343       -3.2384609576
 H         -7.1838549181       -1.0706658316       -1.9854848774
 H         -7.0250442668        2.3888900409        1.0344037220
 H         -5.8200724539        3.8123012926        2.6740469624
 H         -3.4317429321        3.3720722064        3.1451710720
 H         -2.2650833795        1.5375487408        1.9952236536
 H         -1.2210896702        1.0739433928       -0.8994294994
 H          3.5507698472        2.8565401976       -0.0611321726
 H          5.2746607706        3.9558532202       -1.4901985684
 H          6.2696639039        2.6545824317       -3.3730370332
 H          5.4508254079        0.3249629962       -3.7616444250
 H          7.2667639273        0.3054052313        0.2727745093
  55
  -92.5717607900000       0.132583575396119      !
 C          6.9282556956       -1.2410462247        1.7196413602
 C          6.0036639788       -2.2498169935        1.9702210231
 C          4.6922818675       -2.0701259104        1.5894445757
 C          4.3335348498       -0.8725162587        0.9512628541
 C          2.9623661008       -0.6539107601        0.5470143482
 N          1.9859931717       -1.3503169242        1.1341056808
 C          0.7060385654       -1.0955016146        0.8877170805
 C         -0.3302429257       -1.8207629028        1.4853943160
 C         -1.6533840822       -1.4951020765        1.2459955666
 C         -1.9720511693       -0.4364798732        0.4078724474
 N         -3.3370112231       -0.1069052599        0.1785680775
 C         -4.0842388219       -0.8263824400       -0.7395966734
 C         -3.5237968203       -1.8380497898       -1.5130007638
 C         -4.2983256811       -2.5383791755       -2.4216324286
 C         -5.6403743180       -2.2408619829       -2.5740478870
 C         -6.2124649413       -1.2295449507       -1.8174176781
 C         -5.4451701047       -0.5234743622       -0.9087505325
 O         -6.0646697685        0.4695959630       -0.1957823592
 C         -5.3061560875        1.1782002257        0.6988425824
 C         -5.9352990888        2.1816589715        1.4133004407
 C         -5.2229093421        2.9279303775        2.3396569570
 C         -3.8812761678        2.6647825610        2.5493190050
 C         -3.2439366021        1.6621397254        1.8386843328
 C         -3.9429840215        0.9072139550        0.9021832346
 C         -0.9678862930        0.3014661884       -0.2196248345
 C          0.3656680184       -0.0150894819       -0.0073359181
 N          1.3627534019        0.6296792962       -0.6396446255
 C          2.6203179127        0.3179740970       -0.4194824275
 C          3.6590534798        0.9651890420       -1.2365293935
 C          3.7072681208        2.3547712369       -1.3409139949
 C          4.6815659831        2.9177068551       -2.1441713432
 C          5.5590763302        2.0852164202       -2.8226478663
 C          5.4046984796        0.7144439502       -2.6737918048
 N          4.4832887576        0.1699777859       -1.9066589563
 N          5.2221288633        0.0992954154        0.7435615360
 C          6.4723082000       -0.0826831308        1.1076114007
 H          7.9648835169       -1.3467686479        1.9979423924
 H          6.3111464252       -3.1641509701        2.4580790808
 H          3.9327560206       -2.8159454374        1.7616349101
 H         -0.0718803695       -2.6292328071        2.1498533205
 H         -2.4455200082       -2.0599883982        1.7144486616
 H         -2.4766237724       -2.0680791915       -1.3967798142
 H         -3.8443652878       -3.3194516172       -3.0114553028
 H         -6.2451394163       -2.7876184380       -3.2799318524
 H         -7.2546059535       -0.9720972458       -1.9177328514
 H         -6.9825434623        2.3616580730        1.2315595631
 H         -5.7199053372        3.7086444098        2.8932342239
 H         -3.3211301333        3.2395302376        3.2706763467
 H         -2.1987004934        1.4547225833        2.0055185971
 H         -1.2179445744        1.1106421571       -0.8871706927
 H          2.9968985426        2.9594798342       -0.8002004697
 H          4.7557139738        3.9916219481       -2.2423838964
 H          6.3368368383        2.4864911287       -3.4536201051
 H          6.0476124011        0.0168471035       -3.1954646176
 H          7.1399544737        0.7456750884        0.9054497690
  55
  -92.5717216800000       0.127208465839741      !
 C          6.9499465005       -1.1746499418        1.6897198014
 C          6.0139933850       -2.1285566972        2.0786734382
 C          4.6944045372       -1.9596865041        1.7249292199
 C          4.3364293897       -0.8286320694        0.9728422670
 C          2.9597406971       -0.6255507760        0.5881511656
 N          1.9899166261       -1.2767100576        1.2390623737
 C          0.7080488458       -1.0403590709        0.9907367400
 C         -0.3211588245       -1.7097108008        1.6641754734
 C         -1.6469174893       -1.4085819001        1.4109450069
 C         -1.9770483112       -0.4321792501        0.4820020439
 N         -3.3439355469       -0.1223017624        0.2331968679
 C         -4.0394764167       -0.7811656428       -0.7670296768
 C         -3.4454107777       -1.7668742412       -1.5485784320
 C         -4.1697600475       -2.4092262808       -2.5380573751
 C         -5.4941832327       -2.0794935155       -2.7623299124
 C         -6.1008788637       -1.0984213204       -1.9926223947
 C         -5.3843818752       -0.4511581429       -1.0023917255
 O         -6.0366917971        0.5103607798       -0.2756102970
 C         -5.3308957773        1.1524003148        0.7079987993
 C         -5.9924430917        2.1228384689        1.4383684772
 C         -5.3315129694        2.8051908759        2.4485571565
 C         -4.0082699148        2.5127657225        2.7245312429
 C         -3.3378480887        1.5444028118        1.9969663080
 C         -3.9860476766        0.8513813777        0.9797462405
 C         -0.9816422387        0.2490560271       -0.2185107267
 C          0.3544650289       -0.0418259596        0.0105978289
 N          1.3440779746        0.5619246190       -0.6746859850
 C          2.6025471100        0.2799512154       -0.4359375193
 C          3.6376738266        0.8933076967       -1.2892428217
 C          3.7579156919        2.2800234077       -1.3615775816
 C          4.7253711287        2.8096898226       -2.1953859764
 C          5.5227801644        1.9483958365       -2.9338948878
 C          5.2979754128        0.5850645558       -2.8123875425
 N          4.3826803542        0.0716193499       -2.0160676756
 N          5.2380399352        0.0926082493        0.6306240011
 C          6.4964291167       -0.0789353432        0.9705152892
 H          7.9932640477       -1.2748838015        1.9437237339
 H          6.3207636150       -2.9923217575        2.6517834796
 H          3.9257471037       -2.6640101126        2.0005306718
 H         -0.0532619576       -2.4568417750        2.3935601333
 H         -2.4329191606       -1.9288401417        1.9378718509
 H         -2.4123145272       -2.0231410485       -1.3738261719
 H         -3.6906965511       -3.1706345332       -3.1337764062
 H         -6.0598917581       -2.5796408125       -3.5323223487
 H         -7.1313576084       -0.8205653000       -2.1460457455
 H         -7.0237367611        2.3293459458        1.2015853240
 H         -5.8544755417        3.5600725917        3.0139625475
 H         -3.4880679427        3.0384608098        3.5101491007
 H         -2.3053580373        1.3171412304        2.2109746244
 H         -1.2401405135        0.9980746854       -0.9500739414
 H          3.1088156408        2.9092334096       -0.7737709212
 H          4.8563127877        3.8800949206       -2.2699110253
 H          6.2941232733        2.3227791476       -3.5889367279
 H          5.8764284140       -0.1327256742       -3.3800479739
 H          7.1736088878        0.7056633249        0.6562595709
  55
  -92.5715995100000       0.111781664015555      !
 C          6.9153497748       -1.0310764175        1.8635711660
 C          6.0222393776       -2.0656186353        2.1207077818
 C          4.7159738528       -1.9469282822        1.6979156203
 C          4.3348236564       -0.7854915272        1.0102726991
 C          2.9636269598       -0.6253159171        0.5680638134
 N          1.9931998543       -1.2760364285        1.2103111161
 C          0.7100232451       -1.0528348733        0.9419179357
 C         -0.3209152873       -1.7184418080        1.6110449283
 C         -1.6465537804       -1.4111119614        1.3553294003
 C         -1.9690921148       -0.4334388814        0.4263126977
 N         -3.3347990248       -0.1030976770        0.1964487165
 C         -4.0518086701       -0.7281297617       -0.8100845746
 C         -3.4681802908       -1.6677060629       -1.6539317682
 C         -4.2139621839       -2.2769875320       -2.6484024343
 C         -5.5499978316       -1.9602766351       -2.8155648648
 C         -6.1469692238       -1.0263326969       -1.9824197833
 C         -5.4090899563       -0.4124788510       -0.9865898622
 O         -6.0548954145        0.4995190348       -0.1928630664
 C         -5.3277245296        1.1094426867        0.7955937613
 C         -5.9829991540        2.0285969201        1.5949030941
 C         -5.2997673078        2.6803979227        2.6103793405
 C         -3.9594323783        2.4113183407        2.8202245516
 C         -3.2962196468        1.4920112788        2.0256369310
 C         -3.9682567851        0.8256989088        1.0057766001
 C         -0.9703460968        0.2361795137       -0.2801717211
 C          0.3657060806       -0.0617831985       -0.0498008981
 N          1.3576263060        0.5251019549       -0.7390283457
 C          2.6205235803        0.2500511517       -0.4853920322
 C          3.6516433394        0.8332068360       -1.3529000504
 C          3.6098549602        2.1911640881       -1.6707925283
 C          4.5808353472        2.6982574247       -2.5134267971
 C          5.5466678967        1.8415624074       -3.0205129704
 C          5.4806942402        0.5016628882       -2.6656795053
 N          4.5629338627        0.0113525092       -1.8593063701
 N          5.1913351296        0.2114632350        0.7940277392
 C          6.4356404766        0.0894472707        1.2012433570
 H          7.9459625586       -1.0894851794        2.1754859072
 H          6.3489607198       -2.9515235236        2.6467239196
 H          3.9802796060       -2.7148934251        1.8756995112
 H         -0.0582549207       -2.4627786973        2.3451146707
 H         -2.4353507499       -1.9243180070        1.8847838216
 H         -2.4264706530       -1.9146978270       -1.5220050435
 H         -3.7431846367       -3.0030623504       -3.2928053301
 H         -6.1323023626       -2.4349084913       -3.5893650102
 H         -7.1864961232       -0.7605304821       -2.0887646288
 H         -7.0273541158        2.2196073040        1.4067884436
 H         -5.8179928602        3.3948044744        3.2300933468
 H         -3.4199908025        2.9168640436        3.6060683594
 H         -2.2507306425        1.2829286302        2.1890115986
 H         -1.2243709608        0.9828857902       -1.0156010579
 H          2.8324812221        2.8133719358       -1.2570557036
 H          4.5845697181        3.7471991106       -2.7742516707
 H          6.3242946367        2.1994849488       -3.6770828415
 H          6.1958371147       -0.2157211707       -3.0476181415
 H          7.0783601956        0.9355461713        0.9917645226
