  111
       -157.79036339
 C          3.0645544845        2.6387321243       -2.8083531915
 C          1.6357824046        3.1205758704       -2.5429197788
 C          1.6963657265        4.1869315383       -1.4420066417
 C          1.0862521092        3.7408072930       -3.8360399013
 C          0.7041307374        1.9958422517       -2.1151540133
 C          1.1105046183        0.6600625912       -2.0858983499
 C          0.2486129472       -0.3714310432       -1.7605930129
 C         -1.0602990068       -0.0577597409       -1.4425019908
 C         -1.4830393468        1.2860134881       -1.4110002880
 C         -0.6052520239        2.2980015102       -1.7642604032
 C         -2.8511001577        1.2727130520       -0.9641375041
 C         -3.7915265251        2.2747541029       -0.7670294966
 C         -5.0655681241        1.9495505877       -0.3275099668
 C         -6.1430526326        2.9977806469       -0.0919468934
 C         -5.6311860301        4.4245419586       -0.3091040073
 C         -6.6548277404        2.8935995199        1.3517225419
 C         -7.2986655304        2.7471137564       -1.0712640901
 C         -5.3747757781        0.6000237282       -0.1161228583
 C         -4.4635810793       -0.4183549951       -0.3153382718
 C         -3.1866617612       -0.0757790796       -0.7276019284
 N         -2.1048627286       -0.8801299225       -1.0435905134
 C         -2.0063099252       -2.2597460282       -0.9423527552
 C         -1.4192491272       -3.0000984603       -1.9760048854
 C         -1.1079813547       -4.3273638579       -1.7606493518
 C         -1.3814311871       -4.8589296533       -0.5067094150
 S         -0.2904167605       -6.1978631250        0.0589126183
 O          0.2438200325       -6.8665025961       -1.1000069431
 O         -0.8204263542       -6.9917582336        1.1198586622
 C          0.8966094280       -4.9276230423        0.5879710116
 C          1.7664654595       -4.4200789026       -0.3665839450
 C          2.2248248672       -3.1245803794       -0.2100393787
 C          1.7964893069       -2.3901424958        0.9007610117
 N          2.0184423403       -1.0272549565        1.0219377148
 C          1.0466645034       -0.1121997954        1.4076311040
 C         -0.2922930578       -0.3010484056        1.6996354854
 C         -1.0554842419        0.8049783945        2.0261375809
 C         -0.5239571863        2.0954931395        2.0780902128
 C         -1.3489918509        3.2988596946        2.5105890675
 C         -2.8144077302        2.9467719768        2.7794093439
 C         -0.7442653869        3.8650715696        3.8038710816
 C         -1.3145848021        4.3680636107        1.4111658022
 C          0.8118325802        2.2748229565        1.7439162122
 C          1.5936817266        1.1861165829        1.3923738681
 C          2.9614650813        1.0491520747        0.9667248751
 C          3.9882375436        1.9646322574        0.7805695556
 C          5.2348804538        1.5287386450        0.3588452042
 C          6.3977175719        2.4797397973        0.1178900061
 C          6.9102691256        2.3058808642       -1.3190195030
 C          6.0022989376        3.9474058888        0.3026637412
 C          7.5210119569        2.1541033639        1.1123503568
 C          5.4309252288        0.1554723147        0.1688680719
 C          4.4310627479       -0.7782660804        0.3577843513
 C          3.1778885028       -0.3246681976        0.7355935151
 C          1.0500822872       -3.0706099326        1.8741105116
 N          0.5865004274       -4.2879832026        1.6975634326
 N         -2.0506802297       -4.2085052894        0.4217190053
 C         -2.3991201865       -2.9582720576        0.2070883533
 H          3.6847068738        3.4889291403       -3.0874362887
 H          3.0941979132        1.9243665170       -3.6278836047
 H          3.4919224247        2.1821987966       -1.9180061730
 H          0.7248169721        4.6412709565       -1.2715729033
 H          2.0330044514        3.7340876644       -0.5138145401
 H          2.3931865613        4.9747931106       -1.7217117475
 H          0.0886066497        4.1443399253       -3.6854833384
 H          1.0341136518        2.9898534735       -4.6216665990
 H          1.7348345139        4.5471767580       -4.1719192113
 H          2.1292443459        0.4022047058       -2.3232562984
 H          0.6012936390       -1.3926962414       -1.7449941656
 H         -0.9546835302        3.3184793869       -1.7635552746
 H         -3.5127888612        3.2947592262       -0.9720852957
 H         -4.8059989716        4.6496158936        0.3626177229
 H         -6.4332906923        5.1311898853       -0.1062118460
 H         -5.3079665726        4.5740381772       -1.3366710449
 H         -5.8387599286        3.0490453699        2.0538273523
 H         -7.0947666180        1.9206989105        1.5507586091
 H         -7.4145797437        3.6509538090        1.5326179779
 H         -6.9408585513        2.8015933583       -2.0974602806
 H         -7.7416946769        1.7670335949       -0.9174768198
 H         -8.0747346981        3.4973601225       -0.9357072890
 H         -6.3677415156        0.3291614787        0.2074322138
 H         -4.7513714343       -1.4477597810       -0.1651640078
 H         -1.1913790295       -2.5186011359       -2.9153564276
 H         -0.6309048525       -4.9410691760       -2.5068766928
 H          2.0220922286       -5.0220066305       -1.2233654251
 H          2.8471684744       -2.6647059660       -0.9629793910
 H         -0.7428617715       -1.2819749675        1.6696350152
 H         -2.0969942165        0.6421837832        2.2478008850
 H         -3.2845739759        2.5347991375        1.8890577613
 H         -3.3541964947        3.8480966839        3.0651830512
 H         -2.9045156002        2.2333167915        3.5951840410
 H         -1.3200154964        4.7234800918        4.1436771417
 H         -0.7560980182        3.1097631830        4.5868582908
 H          0.2842243602        4.1815369877        3.6527966634
 H         -0.3046788530        4.7262523244        1.2339920019
 H         -1.9301171048        5.2190199909        1.6966883355
 H         -1.7003702803        3.9517712002        0.4848126165
 H          1.2574537195        3.2571894123        1.7581579741
 H          3.7959954787        3.0058126497        0.9784323827
 H          7.2739489642        1.2975691650       -1.4944370990
 H          7.7284357197        2.9973006837       -1.5086785599
 H          6.1137669077        2.5103298447       -2.0310473222
 H          5.1991770489        4.2233355116       -0.3768116030
 H          5.6898522553        4.1443401685        1.3255311881
 H          6.8590920330        4.5827043937        0.0877903053
 H          8.3561997506        2.8368419072        0.9714435515
 H          7.1602584655        2.2553793715        2.1338978326
 H          7.8847936225        1.1388782967        0.9795407725
 H          6.4033490606       -0.2041921891       -0.1299951767
 H          4.6390172556       -1.8296727844        0.2291647460
 H          0.7960474547       -2.5948039101        2.8107325458
 H         -2.9452318939       -2.4742270819        1.0045739342
