  111
  -157.790363390000       0.802461217993637      !
 C          3.0645544845        2.6387321243       -2.8083531915
 C          1.6357824046        3.1205758704       -2.5429197788
 C          1.6963657265        4.1869315383       -1.4420066417
 C          1.0862521092        3.7408072930       -3.8360399013
 C          0.7041307374        1.9958422517       -2.1151540133
 C          1.1105046183        0.6600625912       -2.0858983499
 C          0.2486129472       -0.3714310432       -1.7605930129
 C         -1.0602990068       -0.0577597409       -1.4425019908
 C         -1.4830393468        1.2860134881       -1.4110002880
 C         -0.6052520239        2.2980015102       -1.7642604032
 C         -2.8511001577        1.2727130520       -0.9641375041
 C         -3.7915265251        2.2747541029       -0.7670294966
 C         -5.0655681241        1.9495505877       -0.3275099668
 C         -6.1430526326        2.9977806469       -0.0919468934
 C         -5.6311860301        4.4245419586       -0.3091040073
 C         -6.6548277404        2.8935995199        1.3517225419
 C         -7.2986655304        2.7471137564       -1.0712640901
 C         -5.3747757781        0.6000237282       -0.1161228583
 C         -4.4635810793       -0.4183549951       -0.3153382718
 C         -3.1866617612       -0.0757790796       -0.7276019284
 N         -2.1048627286       -0.8801299225       -1.0435905134
 C         -2.0063099252       -2.2597460282       -0.9423527552
 C         -1.4192491272       -3.0000984603       -1.9760048854
 C         -1.1079813547       -4.3273638579       -1.7606493518
 C         -1.3814311871       -4.8589296533       -0.5067094150
 S         -0.2904167605       -6.1978631250        0.0589126183
 O          0.2438200325       -6.8665025961       -1.1000069431
 O         -0.8204263542       -6.9917582336        1.1198586622
 C          0.8966094280       -4.9276230423        0.5879710116
 C          1.7664654595       -4.4200789026       -0.3665839450
 C          2.2248248672       -3.1245803794       -0.2100393787
 C          1.7964893069       -2.3901424958        0.9007610117
 N          2.0184423403       -1.0272549565        1.0219377148
 C          1.0466645034       -0.1121997954        1.4076311040
 C         -0.2922930578       -0.3010484056        1.6996354854
 C         -1.0554842419        0.8049783945        2.0261375809
 C         -0.5239571863        2.0954931395        2.0780902128
 C         -1.3489918509        3.2988596946        2.5105890675
 C         -2.8144077302        2.9467719768        2.7794093439
 C         -0.7442653869        3.8650715696        3.8038710816
 C         -1.3145848021        4.3680636107        1.4111658022
 C          0.8118325802        2.2748229565        1.7439162122
 C          1.5936817266        1.1861165829        1.3923738681
 C          2.9614650813        1.0491520747        0.9667248751
 C          3.9882375436        1.9646322574        0.7805695556
 C          5.2348804538        1.5287386450        0.3588452042
 C          6.3977175719        2.4797397973        0.1178900061
 C          6.9102691256        2.3058808642       -1.3190195030
 C          6.0022989376        3.9474058888        0.3026637412
 C          7.5210119569        2.1541033639        1.1123503568
 C          5.4309252288        0.1554723147        0.1688680719
 C          4.4310627479       -0.7782660804        0.3577843513
 C          3.1778885028       -0.3246681976        0.7355935151
 C          1.0500822872       -3.0706099326        1.8741105116
 N          0.5865004274       -4.2879832026        1.6975634326
 N         -2.0506802297       -4.2085052894        0.4217190053
 C         -2.3991201865       -2.9582720576        0.2070883533
 H          3.6847068738        3.4889291403       -3.0874362887
 H          3.0941979132        1.9243665170       -3.6278836047
 H          3.4919224247        2.1821987966       -1.9180061730
 H          0.7248169721        4.6412709565       -1.2715729033
 H          2.0330044514        3.7340876644       -0.5138145401
 H          2.3931865613        4.9747931106       -1.7217117475
 H          0.0886066497        4.1443399253       -3.6854833384
 H          1.0341136518        2.9898534735       -4.6216665990
 H          1.7348345139        4.5471767580       -4.1719192113
 H          2.1292443459        0.4022047058       -2.3232562984
 H          0.6012936390       -1.3926962414       -1.7449941656
 H         -0.9546835302        3.3184793869       -1.7635552746
 H         -3.5127888612        3.2947592262       -0.9720852957
 H         -4.8059989716        4.6496158936        0.3626177229
 H         -6.4332906923        5.1311898853       -0.1062118460
 H         -5.3079665726        4.5740381772       -1.3366710449
 H         -5.8387599286        3.0490453699        2.0538273523
 H         -7.0947666180        1.9206989105        1.5507586091
 H         -7.4145797437        3.6509538090        1.5326179779
 H         -6.9408585513        2.8015933583       -2.0974602806
 H         -7.7416946769        1.7670335949       -0.9174768198
 H         -8.0747346981        3.4973601225       -0.9357072890
 H         -6.3677415156        0.3291614787        0.2074322138
 H         -4.7513714343       -1.4477597810       -0.1651640078
 H         -1.1913790295       -2.5186011359       -2.9153564276
 H         -0.6309048525       -4.9410691760       -2.5068766928
 H          2.0220922286       -5.0220066305       -1.2233654251
 H          2.8471684744       -2.6647059660       -0.9629793910
 H         -0.7428617715       -1.2819749675        1.6696350152
 H         -2.0969942165        0.6421837832        2.2478008850
 H         -3.2845739759        2.5347991375        1.8890577613
 H         -3.3541964947        3.8480966839        3.0651830512
 H         -2.9045156002        2.2333167915        3.5951840410
 H         -1.3200154964        4.7234800918        4.1436771417
 H         -0.7560980182        3.1097631830        4.5868582908
 H          0.2842243602        4.1815369877        3.6527966634
 H         -0.3046788530        4.7262523244        1.2339920019
 H         -1.9301171048        5.2190199909        1.6966883355
 H         -1.7003702803        3.9517712002        0.4848126165
 H          1.2574537195        3.2571894123        1.7581579741
 H          3.7959954787        3.0058126497        0.9784323827
 H          7.2739489642        1.2975691650       -1.4944370990
 H          7.7284357197        2.9973006837       -1.5086785599
 H          6.1137669077        2.5103298447       -2.0310473222
 H          5.1991770489        4.2233355116       -0.3768116030
 H          5.6898522553        4.1443401685        1.3255311881
 H          6.8590920330        4.5827043937        0.0877903053
 H          8.3561997506        2.8368419072        0.9714435515
 H          7.1602584655        2.2553793715        2.1338978326
 H          7.8847936225        1.1388782967        0.9795407725
 H          6.4033490606       -0.2041921891       -0.1299951767
 H          4.6390172556       -1.8296727844        0.2291647460
 H          0.7960474547       -2.5948039101        2.8107325458
 H         -2.9452318939       -2.4742270819        1.0045739342
  111
  -157.788536580000       0.116112855334017      !
 C          2.5951804958        3.2731430887       -1.8157341150
 C          1.4071144424        3.1682540130       -2.7796376531
 C          0.7311193944        4.5404376331       -2.8527805220
 C          1.9061105625        2.8105355008       -4.1868924869
 C          0.4646757126        2.0784451935       -2.2921159526
 C          0.9307056286        0.7599193730       -2.2169589718
 C          0.1272017108       -0.2966134020       -1.8383666087
 C         -1.1893915560       -0.0262356168       -1.5030811970
 C         -1.6610057249        1.2996495806       -1.4970966683
 C         -0.8416262647        2.3393298615       -1.9139113312
 C         -3.0076520432        1.2528065621       -0.9949507366
 C         -3.9621216092        2.2344125433       -0.7649022427
 C         -5.2024584947        1.8829401924       -0.2557762224
 C         -6.2867987336        2.9085466298        0.0386432322
 C         -5.8299021209        4.3426243926       -0.2432048001
 C         -6.6799657198        2.8187122238        1.5199707386
 C         -7.5078120475        2.6120093465       -0.8431648872
 C         -5.4654581025        0.5284174209       -0.0150268832
 C         -4.5379926408       -0.4692380329       -0.2431219169
 C         -3.2897993581       -0.0998163677       -0.7163363610
 N         -2.1912429213       -0.8745906553       -1.0516130052
 C         -2.0526841132       -2.2496570432       -0.9415419220
 C         -1.4627603553       -2.9822648662       -1.9792014706
 C         -1.1280779839       -4.3038438765       -1.7641849251
 C         -1.3866921789       -4.8396616314       -0.5091633150
 S         -0.2873685727       -6.1768465252        0.0429073779
 O          0.2396300292       -6.8422506773       -1.1211881372
 O         -0.8070455081       -6.9738998472        1.1067374660
 C          0.9025325501       -4.9077267490        0.5662793548
 C          1.7940962484       -4.4199058602       -0.3779531108
 C          2.2735316744       -3.1319599191       -0.2195671038
 C          1.8397907766       -2.3849451769        0.8800631106
 N          2.0985976948       -1.0285308757        1.0044025633
 C          1.1430429717       -0.0811728550        1.3478845565
 C         -0.2125408406       -0.2261898100        1.5812538742
 C         -0.9522732250        0.9047783104        1.8750241765
 C         -0.3822794843        2.1777962664        1.9443360523
 C         -1.1879261865        3.4101867015        2.3300207458
 C         -2.6646935063        3.0983276649        2.5868046300
 C         -0.5936725275        4.0023497825        3.6164676693
 C         -1.1130336924        4.4433564306        1.1987268789
 C          0.9727561706        2.3125256341        1.6698341015
 C          1.7352774930        1.1971381873        1.3635194472
 C          3.1208530971        1.0110595005        1.0200893199
 C          4.1957664430        1.8784306299        0.9175134655
 C          5.4536506678        1.3942925128        0.5798211217
 C          6.6169181431        2.3699111298        0.4720963247
 C          6.2856336765        3.4346234124       -0.5831281535
 C          6.8295577768        3.0399885428        1.8369650553
 C          7.9281134601        1.6920463349        0.0654677555
 C          5.6046487713        0.0214831287        0.3725136223
 C          4.5508935693       -0.8694887959        0.4802159869
 C          3.2986484618       -0.3696534609        0.7895375588
 C          1.0555409242       -3.0417730403        1.8393213743
 N          0.5777813382       -4.2534431620        1.6634251271
 N         -2.0501887476       -4.1963079153        0.4280582563
 C         -2.4147291271       -2.9500770644        0.2169055979
 H          3.2730364230        4.0597381040       -2.1407783457
 H          3.1522178570        2.3420701652       -1.7630385543
 H          2.2388666063        3.5078429483       -0.8159227313
 H         -0.1170559703        4.5232005151       -3.5332871082
 H          0.3955012505        4.8651112298       -1.8707546220
 H          1.4432702586        5.2750677567       -3.2232529897
 H          1.0647842940        2.7035286568       -4.8685485770
 H          2.4649618679        1.8790796828       -4.1859931685
 H          2.5574768430        3.5962119441       -4.5638054611
 H          1.9590198187        0.5470204342       -2.4662304579
 H          0.5262175122       -1.2999128653       -1.7919072787
 H         -1.2431539616        3.3382730511       -1.9363228918
 H         -3.7165857123        3.2579507682       -0.9938317837
 H         -4.9666043620        4.6042284186        0.3642463623
 H         -6.6346235725        5.0329647364        0.0009518496
 H         -5.5826604322        4.4764627553       -1.2938016994
 H         -5.8141563514        3.0061948086        2.1514448180
 H         -7.0770349561        1.8386177265        1.7682584505
 H         -7.4419211292        3.5606651606        1.7489910715
 H         -7.2303698712        2.6499676547       -1.8946747254
 H         -7.9175865620        1.6276083144       -0.6349107846
 H         -8.2870215082        3.3499254436       -0.6646668417
 H         -6.4337648749        0.2365266582        0.3608579814
 H         -4.7924062321       -1.5026575919       -0.0637807798
 H         -1.2524369791       -2.4993422027       -2.9219120174
 H         -0.6473348336       -4.9112009114       -2.5132936920
 H          2.0521799730       -5.0306739843       -1.2277050580
 H          2.9187049274       -2.6862154656       -0.9619872561
 H         -0.6919286492       -1.1928271160        1.5339579740
 H         -2.0067444464        0.7765018147        2.0539079598
 H         -3.1367596705        2.6828551336        1.6992734779
 H         -3.1854343750        4.0174444958        2.8505591675
 H         -2.7805080506        2.4011749362        3.4133946288
 H         -1.1669608085        4.8726302269        3.9292235031
 H         -0.6211260280        3.2655141704        4.4164942072
 H          0.4388935521        4.3086044925        3.4723923267
 H         -0.0885927273        4.7504006912        1.0069234089
 H         -1.6892612921        5.3290085534        1.4595753805
 H         -1.5203442739        4.0163366311        0.2864504190
 H          1.4500158222        3.2801220686        1.6971234416
 H          4.0404079387        2.9279856040        1.1112806043
 H          6.1118213505        2.9651452040       -1.5491189774
 H          7.1140305989        4.1327227416       -0.6830597296
 H          5.3967849897        3.9974492871       -0.3134590951
 H          5.9496071529        3.5970366014        2.1458890229
 H          7.0404485527        2.2888731386        2.5952677234
 H          7.6703220126        3.7287628253        1.7899879393
 H          8.7136704145        2.4412825765       -0.0094084796
 H          8.2370472807        0.9577195343        0.8056702823
 H          7.8347152734        1.2067214020       -0.9033733595
 H          6.5725277575       -0.3828181944        0.1274352806
 H          4.7202949687       -1.9269000639        0.3431237818
 H          0.7834372391       -2.5507355655        2.7630622956
 H         -2.9502160680       -2.4703166317        1.0240454800
  111
  -157.788021060000       6.729204343253496E-002 !
 C          1.8257874468        2.9352104369       -4.1062562509
 C          1.3027325464        3.2921564261       -2.7076071901
 C          2.4784073213        3.4360579465       -1.7332295606
 C          0.5926097260        4.6459145749       -2.7994425017
 C          0.3841261697        2.1814670148       -2.2212854211
 C          0.8905646846        0.8803412682       -2.1125529778
 C          0.1137112727       -0.1945612100       -1.7303720892
 C         -1.2164361741        0.0397992630       -1.4229192701
 C         -1.7317300266        1.3488976199       -1.4537764366
 C         -0.9389545998        2.4059749254       -1.8785825656
 C         -3.0878314844        1.2663457010       -0.9802009343
 C         -4.0861473537        2.2100492918       -0.7993474235
 C         -5.3339163180        1.8222469197       -0.3260110865
 C         -6.4160342399        2.8768740424       -0.1424128223
 C         -5.9242520327        3.9372368395        0.8526418057
 C         -7.7279226653        2.2972977248        0.3934462812
 C         -6.7044115909        3.5328913609       -1.5005112945
 C         -5.5518670388        0.4691632256       -0.0555980260
 C         -4.5742634325       -0.4949750918       -0.2305079318
 C         -3.3300296521       -0.0910774004       -0.6796663529
 N         -2.1971887870       -0.8331071241       -0.9734789130
 C         -2.0303278013       -2.2057178145       -0.8677537517
 C         -1.4210544686       -2.9217949597       -1.9055486492
 C         -1.0849983076       -4.2449139574       -1.7027486091
 C         -1.3593397522       -4.7987242950       -0.4591120624
 S         -0.2899602545       -6.1704500981        0.0690185109
 O          0.2112582388       -6.8349891317       -1.1068380634
 O         -0.8259813910       -6.9658633030        1.1258515380
 C          0.9357530613       -4.9408524736        0.6006264326
 C          1.8297057184       -4.4605601791       -0.3453330797
 C          2.3278415942       -3.1804502667       -0.1821939888
 C          1.9116298232       -2.4349897632        0.9251331199
 N          2.1765005889       -1.0799386531        1.0499816556
 C          1.2216363800       -0.1313854805        1.3930936950
 C         -0.1306777508       -0.2791323002        1.6429017304
 C         -0.8722829626        0.8530050582        1.9262101691
 C         -0.3066130808        2.1289306218        1.9741167613
 C         -1.1150935498        3.3614480761        2.3526145273
 C         -2.5921663326        3.0478576517        2.6041853948
 C         -0.5252150847        3.9591042850        3.6385593677
 C         -1.0398485666        4.3915885078        1.2187713464
 C          1.0450348764        2.2653514090        1.6846695528
 C          1.8082427698        1.1495204639        1.3812511799
 C          3.1876368921        0.9650088405        1.0123312051
 C          4.2536744160        1.8367479714        0.8635011786
 C          5.5056091680        1.3530631922        0.5030699413
 C          6.6576721311        2.3337278558        0.3365323119
 C          7.9630058689        1.6540730003       -0.0855849123
 C          6.2883605727        3.3637379784       -0.7404303673
 C          6.9021002067        3.0458091777        1.6744578287
 C          5.6614336988       -0.0231477248        0.3234653831
 C          4.6164351574       -0.9179232518        0.4748113798
 C          3.3684764832       -0.4186503831        0.8017159035
 C          1.1308558982       -3.0894953101        1.8890662069
 N          0.6325766342       -4.2918138306        1.7071440238
 N         -2.0274724569       -4.1672290921        0.4825406217
 C         -2.3931167056       -2.9189524212        0.2821516492
 H          2.4650324203        3.7316163019       -4.4814291580
 H          0.9950296233        2.8055101853       -4.7968818073
 H          2.4035456903        2.0154467449       -4.0911843988
 H          2.1065619905        3.6696260483       -0.7387424156
 H          3.0596235752        2.5207288690       -1.6683180069
 H          3.1376193687        4.2382519382       -2.0588852913
 H          0.2323936795        4.9665174446       -1.8247963304
 H         -0.2431941254        4.6036678936       -3.4940653509
 H          1.2914695330        5.3970428175       -3.1621547416
 H          1.9296783588        0.6958855433       -2.3387637936
 H          0.5421173619       -1.1843352390       -1.6604946939
 H         -1.3743602736        3.3894360739       -1.9365943555
 H         -3.8799369205        3.2417049523       -1.0396428322
 H         -5.7150576250        3.4784117355        1.8165466254
 H         -6.6868053906        4.7004586045        0.9920578363
 H         -5.0181247627        4.4227265071        0.5016425970
 H         -7.5828393336        1.8307684643        1.3650272190
 H         -8.1455961260        1.5672079028       -0.2958527355
 H         -8.4544034910        3.0987241248        0.5118561736
 H         -5.8223183560        4.0267495271       -1.8985072141
 H         -7.0278794464        2.7824370544       -2.2189281759
 H         -7.4931768652        4.2751608829       -1.3983036553
 H         -6.5140166637        0.1401971114        0.2993188553
 H         -4.7935100715       -1.5327119505       -0.0306511218
 H         -1.2014126053       -2.4264220387       -2.8396883275
 H         -0.5954854094       -4.8422418095       -2.4542234142
 H          2.0731559004       -5.0685017478       -1.2013447277
 H          2.9713553658       -2.7380690869       -0.9280185913
 H         -0.6070499913       -1.2479836901        1.6131262998
 H         -1.9246314396        0.7231542269        2.1158788760
 H         -3.0589191550        2.6247596910        1.7174861770
 H         -3.1172604652        3.9670659145        2.8568883278
 H         -2.7104382296        2.3571407443        3.4357355021
 H         -1.0939037531        4.8362807009        3.9400031811
 H         -0.5636097521        3.2292253812        4.4443948724
 H          0.5106776167        4.2556441950        3.4982348135
 H         -0.0169046300        4.7079554059        1.0343155224
 H         -1.6264696567        5.2723471485        1.4725305387
 H         -1.4357425990        3.9572359085        0.3049942948
 H          1.5190392783        3.2347345913        1.6967781908
 H          4.0955730019        2.8894118960        1.0371476312
 H          8.2965718733        0.9424639867        0.6660086402
 H          8.7406086585        2.4063977089       -0.2012764611
 H          7.8484981330        1.1417429944       -1.0381066564
 H          6.0906809022        2.8644722851       -1.6867692455
 H          5.4034378450        3.9284348969       -0.4620220554
 H          7.1082048647        4.0639937365       -0.8851602247
 H          7.7336175591        3.7412533804        1.5826745155
 H          6.0254891696        3.6031291711        1.9924197362
 H          7.1429587588        2.3197394887        2.4481252461
 H          6.6258560005       -0.4266410531        0.0640210066
 H          4.7887525859       -1.9770340826        0.3555295136
 H          0.8776712202       -2.6031558605        2.8205431034
 H         -2.9336727467       -2.4482625267        1.0912941541
  111
  -157.786546410000       1.413388323981095E-002 !
 C         -3.0909255978        2.6590644331       -8.8782915044
 C         -2.1215394366        1.5767729945       -8.3951064876
 C         -2.2223705196        0.3844571910       -9.3569790997
 C         -0.7010131869        2.1576736315       -8.4327386203
 C         -2.4311181706        1.1040412324       -6.9824021413
 C         -1.6299350606        0.1069160592       -6.4115851054
 C         -1.8429256918       -0.3933656456       -5.1424237234
 C         -2.9069928479        0.1129830005       -4.4135335523
 C         -3.7043736331        1.1433312408       -4.9496061360
 C         -3.4682277397        1.6288685568       -6.2286678389
 C         -4.6621394361        1.4923061948       -3.9351203090
 C         -5.7037536473        2.4095814067       -3.9005780155
 C         -6.4968050242        2.5061968641       -2.7689394660
 C         -7.6469562601        3.4957765908       -2.6546883261
 C         -7.7988302973        4.3671687051       -3.9045451615
 C         -7.3946104267        4.4225029777       -1.4567812485
 C         -8.9579505099        2.7240425068       -2.4492659879
 C         -6.2322239257        1.6480670283       -1.6937796703
 C         -5.2033612875        0.7272362768       -1.7020722668
 C         -4.3957359093        0.6650619734       -2.8261327119
 N         -3.3295883426       -0.1726420892       -3.1227473916
 C         -2.7975138023       -1.1453176031       -2.2890459923
 C         -2.4891286679       -2.4210474464       -2.7718999772
 C         -1.9522874230       -3.3518124956       -1.9015146055
 C         -1.7605564956       -2.9717865787       -0.5858220746
 S         -1.0743631767       -4.1496646293        0.5979954533
 O         -0.4304479622       -5.2031318502       -0.1439233511
 O         -2.0879571319       -4.5430309563        1.5415100214
 C          0.1756332130       -3.1926426051        1.4825978420
 C          0.3815455875       -3.4013108434        2.8342089584
 C          1.3611349181       -2.6537623640        3.4619052206
 C          2.0868515176       -1.7260488129        2.7082294272
 N          3.0744742754       -0.9438221541        3.2897314956
 C          4.0617196039       -1.3871959085        4.1574904900
 C          4.3656049466       -2.6678222211        4.5898556306
 C          5.4483427344       -2.8274523102        5.4315281953
 C          6.2491795371       -1.7586244499        5.8541120774
 C          7.4155526271       -2.0397800008        6.7899868417
 C          8.3920860436       -3.0047412522        6.1028359953
 C          8.1863172072       -0.7713449169        7.1662371295
 C          6.8812882460       -2.6723931944        8.0827504953
 C          5.9526819826       -0.4874073405        5.3899825081
 C          4.8695236476       -0.2987705424        4.5420797396
 C          4.3349887088        0.8628020892        3.8833838384
 C          4.6880912546        2.2054520766        3.9058658811
 C          3.9494754113        3.1224718381        3.1760644986
 C          4.2795735959        4.6076181702        3.1496845940
 C          4.5621291830        5.0336602169        1.7020504221
 C          3.0859255363        5.3993419266        3.7023107723
 C          5.5094243972        4.9515089725        3.9944423905
 C          2.8470691434        2.6616845811        2.4447681558
 C          2.4737146260        1.3330548930        2.4051664318
 C          3.2380210955        0.4225969796        3.1165680046
 C          1.7804378311       -1.6065933252        1.3468075189
 N          0.8491416215       -2.3259996406        0.7534653027
 N         -2.0499436488       -1.7783794424       -0.1079243032
 C         -2.5501545122       -0.8829498909       -0.9349986288
 H         -2.8314648934        2.9503124168       -9.8941441280
 H         -3.0328311941        3.5454658207       -8.2508799560
 H         -4.1146383022        2.2920577826       -8.8857004579
 H         -1.5072509348       -0.3929451031       -9.1033733047
 H         -3.2211952325       -0.0454702004       -9.3186855339
 H         -2.0248030260        0.7081027779      -10.3767427147
 H          0.0409935223        1.4111125885       -8.1643734861
 H         -0.6163077925        2.9882344420       -7.7350085125
 H         -0.4714680216        2.5212481210       -9.4320944681
 H         -0.8026185341       -0.2949783690       -6.9759654055
 H         -1.1826918871       -1.1442861512       -4.7354807002
 H         -4.1002521732        2.4149412342       -6.6062216739
 H         -5.8759757491        3.0263719379       -4.7665256612
 H         -6.8988176452        4.9497072400       -4.0871485581
 H         -8.6250625052        5.0610894778       -3.7635581581
 H         -8.0167505052        3.7609075477       -4.7806475072
 H         -6.4561947059        4.9576324110       -1.5875109788
 H         -7.3412604293        3.8641707191       -0.5264632497
 H         -8.1984422864        5.1505923286       -1.3706386602
 H         -9.1318794089        2.0500059232       -3.2854261047
 H         -8.9338851928        2.1349427461       -1.5369829669
 H         -9.7940974079        3.4171481196       -2.3846204800
 H         -6.8552523099        1.6945400640       -0.8139767244
 H         -5.0522469800        0.0709966922       -0.8586254267
 H         -2.6885022944       -2.6725493604       -3.8027262959
 H         -1.6851312999       -4.3500059783       -2.2068328213
 H         -0.2292716665       -4.1182170666        3.3576531950
 H          1.5519528803       -2.7593467907        4.5193791925
 H          3.7910415356       -3.5245658300        4.2713277392
 H          5.6789702181       -3.8267328993        5.7672655379
 H          9.2445436090       -3.1988440292        6.7503324973
 H          8.7559690631       -2.5720192439        5.1732693326
 H          7.9174699786       -3.9543691458        5.8727950825
 H          8.9990812156       -1.0287934177        7.8424056652
 H          8.6191741029       -0.3008770772        6.2864638524
 H          7.5413623019       -0.0574737732        7.6734211070
 H          6.1725924828       -2.0016216448        8.5641782167
 H          7.7004682825       -2.8623447325        8.7730626136
 H          6.3782781150       -3.6148801702        7.8859989637
 H          6.5476947773        0.3675293027        5.6638702475
 H          5.5323031539        2.5063349360        4.5031036608
 H          5.3937699524        4.4604334564        1.2975173595
 H          4.8208699766        6.0898005509        1.6660602709
 H          3.6970884984        4.8741176534        1.0647330276
 H          2.1950064842        5.2479687187        3.0995326245
 H          2.8657632154        5.0848439136        4.7203775366
 H          3.3138222716        6.4631512353        3.7110310432
 H          5.7031154801        6.0205393782        3.9334571711
 H          5.3490728860        4.6995373146        5.0401298425
 H          6.3918164023        4.4295939551        3.6315607957
 H          2.2507338127        3.3663438070        1.8859334659
 H          1.6025822675        1.0261421131        1.8462825154
 H          2.3241909873       -0.9188986280        0.7141067859
 H         -2.7466027453        0.0932850014       -0.5141265613
