  59
  -89.6368276900000       0.218197918586453      !
 C          5.8872721929        1.3530906003       -0.0118502895
 C          5.2211474521        1.0752014092       -1.1940269596
 C          3.8482669844        0.9045841856       -1.1939750409
 C          3.1392455253        1.0091003636       -0.0041366598
 N          1.7272646785        0.8292238276       -0.0004814680
 C          0.9087143274        1.9471814067       -0.0061280571
 C          1.4665708050        3.2287661078       -0.0275217409
 C          0.6622297294        4.3496347017       -0.0287411490
 C         -0.7161381516        4.2204014447       -0.0137126084
 C         -1.2748563200        2.9563120208       -0.0048716895
 C         -0.4823500419        1.8183271195       -0.0030433581
 C         -1.1549925311        0.4681122410       -0.0049520452
 C         -2.1037038566        0.3446323591        1.1721147560
 C         -1.8021738323        0.3767571938        2.5152570319
 C         -2.8380835048        0.2439731699        3.4302682635
 C         -4.1467571198        0.0823435561        3.0017842735
 C         -4.4542425482        0.0488834087        1.6509082726
 C         -3.4251215650        0.1812543073        0.7337252867
 C         -3.4329231303        0.1878557207       -0.7214551309
 C         -4.4721892883        0.0640052296       -1.6283943918
 C         -4.1797855334        0.1108719572       -2.9821717111
 C         -2.8760505804        0.2779466836       -3.4234303260
 C         -1.8300059834        0.4019883508       -2.5187601759
 C         -2.1162886858        0.3555903704       -1.1726560807
 C         -0.1759204479       -0.6807999659       -0.0116329710
 C         -0.6620206789       -1.9603188356       -0.0159821862
 C          0.1862856672       -3.0833712387       -0.0051167153
 C         -0.3045115227       -4.4032881025       -0.0105496111
 C          0.5557184660       -5.4660869659        0.0081010832
 C          1.9429908568       -5.2523329547        0.0331254991
 C          2.4488473863       -3.9828765875        0.0389614382
 C          1.5874998325       -2.8651576594        0.0194402670
 C          2.0736172135       -1.5479408983        0.0239996340
 C          1.2233117559       -0.4606281219       -0.0005202727
 C          3.8071119211        1.2856838993        1.1818760412
 C          5.1797233998        1.4590482937        1.1741002905
 H          6.9585847554        1.4872862754       -0.0148989388
 H          5.7716702617        0.9935702401       -2.1194882772
 H          3.3182336399        0.6864561337       -2.1093761637
 H          2.5398137437        3.3427154021       -0.0460140073
 H          1.1174610407        5.3288500075       -0.0430155544
 H         -1.3492985458        5.0941236773       -0.0131448397
 H         -2.3492302669        2.8414583279       -0.0003956137
 H         -0.7825654182        0.5030720304        2.8495152525
 H         -2.6220824657        0.2670539774        4.4883657926
 H         -4.9367360726       -0.0194898012        3.7316787440
 H         -5.4751151920       -0.0778031621        1.3220004209
 H         -5.4894105734       -0.0654530813       -1.2891812803
 H         -4.9779335745        0.0166399420       -3.7043053791
 H         -2.6720452513        0.3123865367       -4.4836461652
 H         -0.8143981771        0.5329816690       -2.8633923010
 H         -1.7313745572       -2.1199844670       -0.0254995673
 H         -1.3740574328       -4.5585260719       -0.0294296438
 H          0.1753307474       -6.4771535317        0.0041639169
 H          2.6087026477       -6.1033362848        0.0478688185
 H          3.5166120986       -3.8147664452        0.0581561824
 H          3.1429947796       -1.3989359390        0.0494554264
 H          3.2449659835        1.3656804601        2.1006130153
 H          5.6981929573        1.6752496525        2.0962679823
  59
  -89.6367982400000       0.211502897097933      !
 C          5.8678634874        1.3583314917        0.3191439906
 C          5.2553374180        1.3319678143       -0.9229150736
 C          3.8865255467        1.1557954807       -1.0181461089
 C          3.1275790181        1.0072836361        0.1357829415
 N          1.7180668121        0.8252606898        0.0450692465
 C          0.9049373266        1.9404212890       -0.0741635811
 C          1.4650207080        3.2207298676       -0.1000367588
 C          0.6661514866        4.3382401190       -0.2278200644
 C         -0.7080102741        4.2059465899       -0.3314875498
 C         -1.2697222819        2.9434840996       -0.2936803818
 C         -0.4831149609        1.8090038657       -0.1646965082
 C         -1.1560938239        0.4607264445       -0.0822392062
 C         -2.0299945699        0.3984367573        1.1577628140
 C         -1.6444617122        0.4842639348        2.4767492352
 C         -2.6223528283        0.4049222674        3.4592845619
 C         -3.9571528668        0.2445534050        3.1204076426
 C         -4.3490234060        0.1580820635        1.7940309589
 C         -3.3778159972        0.2349618833        0.8098075933
 C         -3.4764075331        0.1731372151       -0.6407014382
 C         -4.5709266273        0.0176292962       -1.4747706299
 C         -4.3616821522       -0.0125324558       -2.8444901562
 C         -3.0855692892        0.1095732606       -3.3726163093
 C         -1.9845952343        0.2676589509       -2.5412883729
 C         -2.1880719006        0.2992218368       -1.1796876284
 C         -0.1770275709       -0.6877715920       -0.0864297083
 C         -0.6580660402       -1.9678826838       -0.1404728176
 C          0.1939932731       -3.0884152423       -0.1279278774
 C         -0.2918726636       -4.4088806051       -0.1859034029
 C          0.5710967057       -5.4695916486       -0.1753792071
 C          1.9563261442       -5.2530167691       -0.1057587924
 C          2.4573415619       -3.9829978091       -0.0455635218
 C          1.5930967592       -2.8674695692       -0.0543491501
 C          2.0741186294       -1.5494977553        0.0035960814
 C          1.2199273061       -0.4653238866       -0.0099424701
 C          3.7410262411        1.0333840604        1.3810625056
 C          5.1108109335        1.2085622085        1.4691168491
 H          6.9364265895        1.4953773796        0.3908712834
 H          5.8448221425        1.4478624293       -1.8201888667
 H          3.3971220887        1.1333143842       -1.9806878292
 H          2.5351178497        3.3359606730       -0.0169785914
 H          1.1222548309        5.3169761707       -0.2461441856
 H         -1.3366223206        5.0769095590       -0.4343796489
 H         -2.3418370242        2.8286799969       -0.3626753326
 H         -0.6045050708        0.6096445115        2.7417893993
 H         -2.3400129858        0.4691032296        4.4999207877
 H         -4.7011287376        0.1869038500        3.9016434123
 H         -5.3901312821        0.0340855310        1.5348068759
 H         -5.5668770291       -0.0791953997       -1.0681775269
 H         -5.2037567895       -0.1347162652       -3.5103128528
 H         -2.9461312188        0.0801761851       -4.4432992214
 H         -0.9902326826        0.3624978874       -2.9530825118
 H         -1.7256372481       -2.1307888449       -0.1935842940
 H         -1.3598994350       -4.5660906185       -0.2402913460
 H          0.1943376066       -6.4809782193       -0.2212775056
 H          2.6243989445       -6.1022793357       -0.0999424254
 H          3.5235649693       -3.8129183018        0.0088673790
 H          3.1420233612       -1.3966063968        0.0569854473
 H          3.1405672500        0.9145060943        2.2707390242
 H          5.5879709392        1.2287593549        2.4375744645
  59
  -89.6367178200000       0.194248577677898      !
 C          5.8113765728        1.3709676515       -0.6943815240
 C          4.9585583390        1.2144028622       -1.7738625428
 C          3.6026345941        1.0308536167       -1.5662959226
 C          3.0995061836        1.0033607744       -0.2728823027
 N          1.7026452219        0.8190601543       -0.0670492562
 C          0.9018918863        1.9322269847        0.1328875404
 C          1.4667200525        3.2095811850        0.1768585876
 C          0.6783214912        4.3225453465        0.3859850676
 C         -0.6890669378        4.1879392099        0.5549149244
 C         -1.2564810709        2.9284644427        0.4977380089
 C         -0.4806343430        1.7987861799        0.2881100845
 C         -1.1559802105        0.4551704098        0.1584295431
 C         -2.2541610521        0.2804159859        1.1853622986
 C         -2.1371818504        0.2263320838        2.5566508298
 C         -3.2886944270        0.0572983395        3.3142960233
 C         -4.5293054077       -0.0534452929        2.7052537582
 C         -4.6518047045       -0.0001197360        1.3256933528
 C         -3.5066826857        0.1664719682        0.5649309855
 C         -3.3179737840        0.2535565793       -0.8751910718
 C         -4.2269284510        0.2012407829       -1.9185561357
 C         -3.7540718093        0.3137338887       -3.2163891894
 C         -2.4003833430        0.4748347500       -3.4690459296
 C         -1.4845828667        0.5286195199       -2.4267994743
 C         -1.9508455776        0.4172665753       -1.1360424574
 C         -0.1782395207       -0.6942474264        0.1922545026
 C         -0.6504278738       -1.9725632960        0.3169271625
 C          0.2055808649       -3.0904183687        0.3024472445
 C         -0.2704473672       -4.4090346931        0.4360276679
 C          0.5946988345       -5.4677324664        0.4114112874
 C          1.9724277979       -5.2513502320        0.2502616406
 C          2.4639917165       -3.9831586871        0.1177407868
 C          1.5973330660       -2.8696050548        0.1412206365
 C          2.0697527783       -1.5531093631        0.0164272912
 C          1.2130013390       -0.4714942403        0.0432070121
 C          3.9553223567        1.1563372658        0.8110459237
 C          5.3092775784        1.3410687008        0.5965682037
 H          6.8686995275        1.5160655802       -0.8578910549
 H          5.3485068941        1.2362526942       -2.7805097551
 H          2.9280353979        0.9072864340       -2.4004742331
 H          2.5313298479        3.3270186834        0.0427178123
 H          1.1376635263        5.2995129811        0.4163227402
 H         -1.3090041366        5.0553215805        0.7209606748
 H         -2.3243500581        2.8134806690        0.6133551525
 H         -1.1707171607        0.3124639020        3.0317059679
 H         -3.2168450535        0.0111228343        4.3910587356
 H         -5.4117477576       -0.1841999668        3.3147295194
 H         -5.6201142212       -0.0876821356        0.8554301398
 H         -5.2823712684        0.0760584524       -1.7264526340
 H         -4.4488873058        0.2760712927       -4.0428486234
 H         -2.0548324994        0.5613882234       -4.4887860735
 H         -0.4303230075        0.6569584935       -2.6252231464
 H         -1.7133377520       -2.1376600937        0.4254345732
 H         -1.3326966826       -4.5668053671        0.5599525155
 H          0.2256214310       -6.4776263585        0.5160169154
 H          2.6419641159       -6.0993106614        0.2324684956
 H          3.5243292144       -3.8125141885       -0.0059723241
 H          3.1326114485       -1.3988662726       -0.0988244525
 H          3.5518333874        1.1312957061        1.8126257477
 H          5.9744866872        1.4608045663        1.4386719223
  59
  -89.6365519800000       0.162983282562225      !
 C          5.7143735368        1.4254422468        1.0457920852
 C          5.3800541161        1.0029748612       -0.2304744808
 C          4.0551360976        0.7963549266       -0.5700090846
 C          3.0583930696        1.0074745062        0.3752991132
 N          1.6896240470        0.8026038408        0.0493088401
 C          0.9080327506        1.9098683723       -0.2470420895
 C          1.4941536312        3.1703228211       -0.3852246615
 C          0.7251452678        4.2756530710       -0.6873481206
 C         -0.6414618410        4.1476278451       -0.8654659960
 C         -1.2274457154        2.9017097734       -0.7370920930
 C         -0.4707259136        1.7807239932       -0.4344051085
 C         -1.1504195563        0.4481978639       -0.2363996829
 C         -1.8454606084        0.4371898417        1.1160318120
 C         -1.2826652239        0.5629255978        2.3663681445
 C         -2.1178885698        0.5326813064        3.4750327784
 C         -3.4877849947        0.3793543145        3.3269370975
 C         -4.0571920707        0.2497694867        2.0702716046
 C         -3.2289012323        0.2785578511        0.9608160490
 C         -3.5255836003        0.1703308548       -0.4593550194
 C         -4.7261165885        0.0023323879       -1.1291993490
 C         -4.7090344288       -0.0673596885       -2.5132516492
 C         -3.5175836602        0.0288480227       -3.2160346086
 C         -2.3108073702        0.1965776108       -2.5498815616
 C         -2.3226271436        0.2656898504       -1.1739359012
 C         -0.1784216943       -0.7049767053       -0.3039216623
 C         -0.6487160240       -1.9774961658       -0.4795289415
 C          0.2010999126       -3.0998323175       -0.4407626907
 C         -0.2704730002       -4.4125401287       -0.6335303766
 C          0.5854732817       -5.4769950450       -0.5661506133
 C          1.9480900670       -5.2722354426       -0.2984982003
 C          2.4344241541       -4.0097407419       -0.1051214435
 C          1.5780367339       -2.8904272277       -0.1746630914
 C          2.0489879086       -1.5787063836        0.0002702655
 C          1.2065690525       -0.4898110721       -0.0865667300
 C          3.3942022005        1.4327267026        1.6540934506
 C          4.7208867148        1.6423941723        1.9856481877
 H          6.7493300733        1.5879781893        1.3067252427
 H          6.1536864470        0.8371964480       -0.9654869481
 H          3.7839752071        0.4707277573       -1.5636444164
 H          2.5604123480        3.2800405044       -0.2572153242
 H          1.1996518695        5.2406185419       -0.7870621213
 H         -1.2468035544        5.0096256601       -1.0998089172
 H         -2.2940858508        2.7926526550       -0.8685133088
 H         -0.2152699336        0.6808840751        2.4842902053
 H         -1.6955779383        0.6304214277        4.4645030534
 H         -4.1187092426        0.3605044701        4.2037721203
 H         -5.1248494428        0.1297227635        1.9603004721
 H         -5.6563814956       -0.0728272967       -0.5858049918
 H         -5.6361071531       -0.1977772596       -3.0525310745
 H         -3.5286218550       -0.0266321650       -4.2946453505
 H         -1.3827281379        0.2721270520       -3.0976262852
 H         -1.7057319484       -2.1366401871       -0.6404905097
 H         -1.3216867752       -4.5611051299       -0.8368430304
 H          0.2201429788       -6.4823943343       -0.7173482139
 H          2.6105407743       -6.1243697861       -0.2468582950
 H          3.4835582079       -3.8488017660        0.1002477715
 H          3.0998241905       -1.4386000408        0.2052477816
 H          2.6116820081        1.6030390020        2.3787825812
 H          4.9790323969        1.9746692291        2.9800704243
  59
  -89.6365452500000       0.161826695751872      !
 C          5.7167888166        1.3790838995       -1.0568922617
 C          4.7521587705        1.3612317769       -2.0500437729
 C          3.4211115439        1.1741405539       -1.7211844424
 C          3.0543003890        1.0052408300       -0.3931773444
 N          1.6811049790        0.8131220223       -0.0698631848
 C          0.8986707125        1.9207177456        0.2170426210
 C          1.4758100548        3.1892525810        0.3089602845
 C          0.7042826873        4.2932916307        0.6098181083
 C         -0.6555072533        4.1561334337        0.8282083269
 C         -1.2352590305        2.9044410241        0.7282515637
 C         -0.4769594644        1.7849064091        0.4253196952
 C         -1.1545287079        0.4499008917        0.2322823103
 C         -2.3182345445        0.2582141188        1.1785956631
 C         -2.2938534785        0.1717458661        2.5534089861
 C         -3.4940493676       -0.0081806719        3.2281593981
 C         -4.6917065075       -0.0980616915        2.5350464081
 C         -4.7213458212       -0.0119824813        1.1521890300
 C         -3.5271033170        0.1657621830        0.4736587965
 C         -3.2428399761        0.2838313436       -0.9482970634
 C         -4.0800536429        0.2588382565       -2.0510838165
 C         -3.5210152158        0.3954713769       -3.3117625274
 C         -2.1528739844        0.5534095134       -3.4702625841
 C         -1.3088380762        0.5803220641       -2.3681658283
 C         -1.8609348016        0.4453275091       -1.1141233492
 C         -0.1794697324       -0.7010396649        0.2907802439
 C         -0.6425297820       -1.9762114787        0.4654608558
 C          0.2169857618       -3.0917845932        0.4448490716
 C         -0.2488551141       -4.4070664007        0.6341864067
 C          0.6172757358       -5.4647123960        0.5987315750
 C          1.9853198105       -5.2501961156        0.3690166733
 C          2.4662659526       -3.9852425451        0.1783654773
 C          1.5987712387       -2.8728710846        0.2127006938
 C          2.0617019969       -1.5588051569        0.0340526455
 C          1.2050065727       -0.4787528135        0.0824568571
 C          4.0217597077        1.0239530248        0.6039995107
 C          5.3508011107        1.2106499340        0.2685539166
 H          6.7548531231        1.5246047755       -1.3157332828
 H          5.0361541269        1.4923690990       -3.0835596518
 H          2.6607841191        1.1589580816       -2.4879539961
 H          2.5359068833        3.3066222720        0.1421616865
 H          1.1710728455        5.2649979512        0.6747550239
 H         -1.2620004238        5.0166253726        1.0649888283
 H         -2.2986237085        2.7903520466        0.8805099338
 H         -1.3608902688        0.2415385012        3.0936083772
 H         -3.4949983660       -0.0797842439        4.3058964029
 H         -5.6133864737       -0.2375464654        3.0812484349
 H         -5.6562021172       -0.0829849651        0.6161073023
 H         -5.1464890922        0.1358676735       -1.9329151533
 H         -4.1590172632        0.3785708014       -4.1835085520
 H         -1.7390142341        0.6575210228       -4.4626320358
 H         -0.2430652871        0.7043829456       -2.4936900177
 H         -1.6998482355       -2.1426863297        0.6163620510
 H         -1.3040853155       -4.5628182904        0.8095031562
 H          0.2563449625       -6.4719811882        0.7474140807
 H          2.6562643174       -6.0968663957        0.3449285928
 H          3.5191782137       -3.8167841985        0.0007305021
 H          3.1167471300       -1.4069548147       -0.1400825656
 H          3.7244790562        0.8912030612        1.6339256984
 H          6.1024704561        1.2250806318        1.0437387729
  59
  -89.6354585000000       5.124062832361961E-002 !
 C          5.4796387908        1.3209094404       -1.6696190879
 C          4.4333538176        0.8796502758       -2.4623917002
 C          3.1730778938        0.7154116740       -1.9182198905
 C          2.9521344640        0.9916394153       -0.5736899636
 N          1.6456099287        0.8118211236       -0.0490016948
 C          0.8867414758        1.8988755057        0.3673299154
 C          1.4465275647        3.1710612298        0.4909397961
 C          0.6924803367        4.2302379042        0.9561258942
 C         -0.6333043486        4.0452496767        1.3049541323
 C         -1.2102680718        2.7993231020        1.1353267543
 C         -0.4719457637        1.7281506674        0.6606762705
 C         -1.1524499721        0.4229153845        0.3187857093
 C         -2.3994411287        0.1702038962        1.1328695616
 C         -2.5054472097       -0.0453392855        2.4903271282
 C         -3.7646385107       -0.2693751226        3.0309889434
 C         -4.8931805120       -0.2746979509        2.2249126066
 C         -4.7922285653       -0.0593511980        0.8597426385
 C         -3.5382512346        0.1611845111        0.3145419997
 C         -3.1237757909        0.4051011139       -1.0579390794
 C         -3.8598321927        0.5081617377       -2.2264797195
 C         -3.1904525552        0.7605942943       -3.4131230224
 C         -1.8125596011        0.9102877856       -3.4329707203
 C         -1.0701616912        0.8095992062       -2.2641887865
 C         -1.7307438305        0.5531095929       -1.0833746674
 C         -0.1810464174       -0.7300803100        0.3785811680
 C         -0.6171412563       -2.0082739739        0.5932085883
 C          0.2695534835       -3.1031712389        0.6116976351
 C         -0.1659550637       -4.4211073684        0.8497521868
 C          0.7278820230       -5.4556972106        0.8799095411
 C          2.0946384635       -5.2154751432        0.6686464411
 C          2.5458920020       -3.9486864248        0.4247652750
 C          1.6490289784       -2.8599611292        0.3891363182
 C          2.0814065817       -1.5434077006        0.1587302773
 C          1.1958659006       -0.4869269811        0.1487213606
 C          4.0077772413        1.4151235495        0.2254908705
 C          5.2652449310        1.5839333088       -0.3269933486
 H          6.4624588709        1.4531867889       -2.0963824386
 H          4.5976386306        0.6653585707       -3.5079460966
 H          2.3546372480        0.3635940938       -2.5292890222
 H          2.4757303283        3.3357561032        0.2125585555
 H          1.1487245408        5.2048152951        1.0476010309
 H         -1.2216477393        4.8679405501        1.6810028734
 H         -2.2572329050        2.6568143475        1.3592831219
 H         -1.6266802997       -0.0430324186        3.1187690593
 H         -3.8666525785       -0.4417913887        4.0924034863
 H         -5.8630216282       -0.4498426009        2.6676648304
 H         -5.6728737782       -0.0657208409        0.2346506208
 H         -4.9341520173        0.3987621129       -2.2141010880
 H         -3.7484378650        0.8468346284       -4.3342089704
 H         -1.3103651898        1.1118590196       -4.3679764788
 H          0.0014308631        0.9390531692       -2.2850736823
 H         -1.6694294471       -2.1954376086        0.7532153917
 H         -1.2196408385       -4.5970474518        1.0150147787
 H          0.3900582112       -6.4641140597        1.0695561976
 H          2.7882066908       -6.0434224463        0.7006638164
 H          3.5975135491       -3.7600389459        0.2599101279
 H          3.1356065545       -1.3680921923        0.0005160549
 H          3.8404191185        1.6003299843        1.2764477113
 H          6.0831632118        1.9138901635        0.2963140018
