  59
        -89.63682769
 C          5.8872721929        1.3530906003       -0.0118502895
 C          5.2211474521        1.0752014092       -1.1940269596
 C          3.8482669844        0.9045841856       -1.1939750409
 C          3.1392455253        1.0091003636       -0.0041366598
 N          1.7272646785        0.8292238276       -0.0004814680
 C          0.9087143274        1.9471814067       -0.0061280571
 C          1.4665708050        3.2287661078       -0.0275217409
 C          0.6622297294        4.3496347017       -0.0287411490
 C         -0.7161381516        4.2204014447       -0.0137126084
 C         -1.2748563200        2.9563120208       -0.0048716895
 C         -0.4823500419        1.8183271195       -0.0030433581
 C         -1.1549925311        0.4681122410       -0.0049520452
 C         -2.1037038566        0.3446323591        1.1721147560
 C         -1.8021738323        0.3767571938        2.5152570319
 C         -2.8380835048        0.2439731699        3.4302682635
 C         -4.1467571198        0.0823435561        3.0017842735
 C         -4.4542425482        0.0488834087        1.6509082726
 C         -3.4251215650        0.1812543073        0.7337252867
 C         -3.4329231303        0.1878557207       -0.7214551309
 C         -4.4721892883        0.0640052296       -1.6283943918
 C         -4.1797855334        0.1108719572       -2.9821717111
 C         -2.8760505804        0.2779466836       -3.4234303260
 C         -1.8300059834        0.4019883508       -2.5187601759
 C         -2.1162886858        0.3555903704       -1.1726560807
 C         -0.1759204479       -0.6807999659       -0.0116329710
 C         -0.6620206789       -1.9603188356       -0.0159821862
 C          0.1862856672       -3.0833712387       -0.0051167153
 C         -0.3045115227       -4.4032881025       -0.0105496111
 C          0.5557184660       -5.4660869659        0.0081010832
 C          1.9429908568       -5.2523329547        0.0331254991
 C          2.4488473863       -3.9828765875        0.0389614382
 C          1.5874998325       -2.8651576594        0.0194402670
 C          2.0736172135       -1.5479408983        0.0239996340
 C          1.2233117559       -0.4606281219       -0.0005202727
 C          3.8071119211        1.2856838993        1.1818760412
 C          5.1797233998        1.4590482937        1.1741002905
 H          6.9585847554        1.4872862754       -0.0148989388
 H          5.7716702617        0.9935702401       -2.1194882772
 H          3.3182336399        0.6864561337       -2.1093761637
 H          2.5398137437        3.3427154021       -0.0460140073
 H          1.1174610407        5.3288500075       -0.0430155544
 H         -1.3492985458        5.0941236773       -0.0131448397
 H         -2.3492302669        2.8414583279       -0.0003956137
 H         -0.7825654182        0.5030720304        2.8495152525
 H         -2.6220824657        0.2670539774        4.4883657926
 H         -4.9367360726       -0.0194898012        3.7316787440
 H         -5.4751151920       -0.0778031621        1.3220004209
 H         -5.4894105734       -0.0654530813       -1.2891812803
 H         -4.9779335745        0.0166399420       -3.7043053791
 H         -2.6720452513        0.3123865367       -4.4836461652
 H         -0.8143981771        0.5329816690       -2.8633923010
 H         -1.7313745572       -2.1199844670       -0.0254995673
 H         -1.3740574328       -4.5585260719       -0.0294296438
 H          0.1753307474       -6.4771535317        0.0041639169
 H          2.6087026477       -6.1033362848        0.0478688185
 H          3.5166120986       -3.8147664452        0.0581561824
 H          3.1429947796       -1.3989359390        0.0494554264
 H          3.2449659835        1.3656804601        2.1006130153
 H          5.6981929573        1.6752496525        2.0962679823
