97
 energy: -148.205634024063 gnorm: 0.000186605282 xtb: 6.7.1 (edcfbbe)
C            3.15055407340856       -0.85695325879319        2.83125120584514
C            3.13159761242833       -2.20296794873789        2.11801382637081
C            1.72095697250043       -2.77817135204286        2.01471231205927
C            1.69873696546264       -4.08246137443784        1.22057610568014
C            0.27936839352132       -4.61265610259015        1.02620381644500
C            0.19847803950280       -5.86531067732120        0.14765991799960
C            0.73266263599886       -5.72919939331452       -1.28124705538025
C           -0.12476642014774       -4.87786001512903       -2.22102722351267
N           -0.15133829412120       -3.47933025470582       -1.86036393538135
C           -1.32145733994914       -2.81796162994179       -1.49998301477213
O           -2.41652231777971       -3.34407614889354       -1.51502446251435
C           -0.90041042810051       -1.46638347266762       -1.12911055735907
C           -1.52097781904202       -0.29172070857323       -0.64257203584059
C           -2.86425704290474        0.04666028100711       -0.41637083546630
C           -3.92986362304051       -0.84518231529178       -0.70279917041249
C           -5.22957661895125       -0.48273360124580       -0.47878247376534
C           -5.54776562386565        0.78718598709926        0.02794695849849
N           -6.87220794810601        1.15359301429496        0.24297923680569
C           -7.45162642879390        2.35136075100340       -0.13306295371421
C           -6.90830856228071        3.41147903163302       -0.84597472095757
C           -7.72708731338176        4.49074989984867       -1.12212179286692
C           -9.05812703236078        4.51683983686772       -0.71438317999468
C           -9.61435430819234        3.44938877616082       -0.03380583226402
C           -8.81159397174219        2.35650812181965        0.25551972373868
C           -9.05606102288787        1.09537481242483        0.90280565895764
C          -10.17255811441815        0.53557211893932        1.50504929339651
C          -10.05719874060779       -0.71923149774034        2.07439362231434
C           -8.84322050360226       -1.40101577089804        2.06496368318332
C           -7.71653651994560       -0.86209651127832        1.47194119944186
C           -7.83471634584499        0.38295566696812        0.86930015246377
C           -4.50665396833431        1.68300727431556        0.31550268693988
C           -3.20485136186733        1.32236180823753        0.10621638537197
S           -0.25117125822986        0.90365712499381       -0.31794922368524
C            1.05931323701801       -0.16926214829299       -0.84077756479014
C            2.39425320653889        0.24920767705853       -0.69711212963557
C            3.48797137979419       -0.56788529475524       -1.07702137862984
C            4.77605964461030       -0.17145989493642       -0.83832265001401
C            5.04870034079255        1.06485366114275       -0.23499784854093
N            6.35982594022636        1.44399029368646        0.03387925383806
C            7.31411986045944        0.65249807547732        0.64608209084127
C            7.19537379316136       -0.62725706766885        1.17065861102968
C            8.30952582341299       -1.18217341380155        1.77241986525127
C            9.51066351948047       -0.48374819582264        1.86401811559195
C            9.62503893156564        0.80320020744684        1.37147455723599
C            8.52067560156813        1.38070648295189        0.76327925280082
C            8.27501852933104        2.67434065187761        0.18380025106676
C            9.06624748028662        3.79580822421082       -0.01353184751627
C            8.51157469791551        4.89372394287821       -0.64512478111324
C            7.19365728467156        4.87221648701406       -1.09391190588915
C            6.38642446371030        3.76506932218249       -0.90977119002787
C            6.92814156954557        2.67163952290797       -0.24814726670079
C            3.98033019205958        1.90839819934342        0.10089469919970
C            2.69058696472896        1.51033710248990       -0.11965387371926
C            0.48756373128683       -1.38846820348613       -1.26274101861921
C            0.96965218646717       -2.67042545494521       -1.79317181765481
O            2.07917104605066       -3.02163059548982       -2.14351129656079
H            4.16409649469833       -0.46470432684713        2.88842753427699
H            2.76250271589520       -0.95468146744328        3.84292573918980
H            2.53632533498131       -0.13562067495350        2.29625811433566
H            3.53612747812660       -2.08127310871734        1.11022435500112
H            3.77166243012665       -2.90918793356073        2.65251341307881
H            1.07603653361419       -2.04648614666348        1.52071717244060
H            1.31836900463539       -2.94718265842297        3.01652354891517
H            2.29878080683162       -4.83591597398506        1.73702547288253
H            2.16609572009907       -3.89796536892797        0.25346099681630
H           -0.35001663250947       -3.82455637988359        0.61137179713801
H           -0.13807130821513       -4.86327213168375        2.00574078104208
H            0.76428244928811       -6.66200850376524        0.63832792139713
H           -0.84617975154264       -6.18368013061054        0.10064101558989
H            1.74617564626729       -5.32962278269962       -1.27215859153447
H            0.78042333815652       -6.72882561551490       -1.71972492099374
H           -1.16499960084926       -5.21426443929480       -2.20836554125251
H            0.27097697396078       -4.96778797126995       -3.23868989231162
H           -3.70876348117775       -1.81789045330096       -1.10946195408028
H           -6.02872828743587       -1.16257509657277       -0.73319606540549
H           -5.88585255708828        3.39149919246183       -1.19005164719577
H           -7.32610509215374        5.32921943236511       -1.67165023908841
H           -9.66497094135583        5.37901492944910       -0.94668880475612
H          -10.65238270875327        3.45992959328187        0.26176327232472
H          -11.10792676669552        1.07350257447568        1.53200664587451
H          -10.91543760412854       -1.17483357110980        2.54494737032008
H           -8.77779135259647       -2.37047304867486        2.53558742833208
H           -6.77571827278216       -1.38962285871635        1.49221204733444
H           -4.74178509274506        2.64639050188797        0.74297382827368
H           -2.41122591540812        2.01124576900172        0.35456076976333
H            3.29874050439014       -1.50898171748821       -1.56647831297940
H            5.59933276141072       -0.79928957204371       -1.14503895657632
H            6.26359501260819       -1.16940935465157        1.12577576383313
H            8.24411209938596       -2.17778772455206        2.18481070936907
H           10.35948768434166       -0.95273714265404        2.33850710840643
H           10.54984800421643        1.35224843691265        1.46244258852457
H           10.09447180871857        3.80533382188248        0.31457847178068
H            9.10972898976157        5.77800812843352       -0.80580076500498
H            6.79430757583755        5.73701520981768       -1.60229327800117
H            5.37428591591410        3.74989209537329       -1.28356335554562
H            4.18323103627577        2.85443424380693        0.58019260056979
H            1.87397280973673        2.15284697781719        0.17452357725682
