97
 energy: -148.205634518093 gnorm: 0.000160092430 xtb: 6.7.1 (edcfbbe)
C            3.13273207413496       -0.82690935196382        2.84304168306235
C            3.10923805786754       -2.17378048872000        2.13158060726726
C            1.69711951359370       -2.74592978948174        2.03153183394898
C            1.67117884083083       -4.05190946608400        1.24027143857817
C            0.25030974541172       -4.57774379491093        1.04528833932000
C            0.16670896213063       -5.83460020902507        0.17295723689182
C            0.70788877025738       -5.70920871783197       -1.25434404182950
C           -0.14138343943732       -4.85952603109699       -2.20304743233848
N           -0.16417453604832       -3.45923340595007       -1.84931558882869
C           -1.33246137916620       -2.79304183784208       -1.49216905117914
O           -2.42925805283273       -3.31549852112760       -1.50793467979426
C           -0.90717245044850       -1.44209659399439       -1.12384811086848
C           -1.52383786640869       -0.26591005603375       -0.63622070559427
C           -2.86617960880243        0.07449897831546       -0.40715269028356
C           -3.93383716291311       -0.81185067125098       -0.70256572419199
C           -5.23260445552927       -0.44895253300217       -0.47427986229783
C           -5.54777530909642        0.81569991403850        0.04731484861201
N           -6.87130850419415        1.18071877052342        0.26950630877858
C           -7.45026649690327        2.38443311317873       -0.08783034511850
C           -6.90727424471458        3.45470214672102       -0.78567865324835
C           -7.72539666913239        4.53895981514894       -1.04366971581683
C           -9.05564411412371        4.56019550153272       -0.63312631832619
C           -9.61180093006116        3.48288088554967        0.03178761746627
C           -8.80961825640246        2.38495874303575        0.30296281267372
C           -9.05428064634306        1.11448898603563        0.93162454885095
C          -10.17057175160254        0.54675030418616        1.52678523531418
C          -10.05566765132084       -0.71646719424117        2.07728585237567
C           -8.84219045762243       -1.39886247974502        2.05654939291183
C           -7.71571892002130       -0.85207947979512        1.47035219572775
C           -7.83357374114752        0.40170133574584        0.88596973396173
C           -4.50460787970406        1.70647876601113        0.34294083426424
C           -3.20368931884254        1.34579909039245        0.12774124066007
S           -0.25049588945301        0.92540130403587       -0.31108602114921
C            1.05642792162455       -0.15104268562953       -0.83534088440271
C            2.39290453099061        0.26263236684537       -0.69225613394136
C            3.48278184265781       -0.55906836021468       -1.07324272039452
C            4.77256022033579       -0.16961916083424       -0.83280650253575
C            5.05095538043820        1.06394334675820       -0.22641957091679
N            6.36400263930853        1.43313876773421        0.04673807149311
C            7.31083143842616        0.63142607804261        0.65732589620037
C            7.18019668551079       -0.64871827300048        1.17814145482727
C            8.28908211091614       -1.21566606506090        1.77837942537034
C            9.49648995494686       -0.52846922348746        1.87237818418176
C            9.62262721975822        0.75900218113436        1.38407820934141
C            8.52376895709167        1.34843137913407        0.77731273185211
C            8.28993614655289        2.64590233522714        0.20150549766168
C            9.09132383402639        3.76073165160165        0.00761530124658
C            8.54692504449046        4.86527461062332       -0.62134518840819
C            7.22910731529466        4.85689550958034       -1.07086402166794
C            6.41183798698575        3.75656073835563       -0.89018571358191
C            6.94334643594476        2.65648208252794       -0.23132776799245
C            3.98673844635009        1.91306682257790        0.10854717359108
C            2.69508868604518        1.52203687870130       -0.11408162791239
C            0.48111604798999       -1.36881276611032       -1.25707746094551
C            0.95934399057471       -2.65382745763742       -1.78354735960755
O            2.06792179929178       -3.01028880875790       -2.13177748555714
H            4.14730859523514       -0.43694547484368        2.89743101786088
H            2.74667830214999       -0.92246249529867        3.85568270918556
H            2.51897762647627       -0.10488972030921        2.30844748884259
H            3.51214272406064       -2.05431399800975        1.12286402965386
H            3.74868564076793       -2.88079445512553        2.66576608294625
H            1.05316041028001       -2.01388763907292        1.53682158449616
H            1.29550618956477       -2.91184418646770        3.03424403589228
H            2.26806508689477       -4.80626138825634        1.75906487023742
H            2.14026086867887       -3.87110401127112        0.27329253950419
H           -0.37518390515259       -3.78933536098563        0.62516423697466
H           -0.17031680770280       -4.82191220828978        2.02509549336591
H            0.72619059318555       -6.63156645116938        0.67040493123907
H           -0.87938592188044       -6.14775705148979        0.12310991369864
H            1.72319008063104       -5.31422446498576       -1.24295081665159
H            0.75304101866484       -6.71160539609408       -1.68672070509340
H           -1.18296458530735       -5.19179743869697       -2.19386967338003
H            0.25924822058495       -4.95608993638738       -3.21814763588394
H           -3.71518500161174       -1.78082495802941       -1.11922188448780
H           -6.03329228426922       -1.12401856472187       -0.73637694971817
H           -5.88558731303071        3.43896255360351       -1.13222138075529
H           -7.32446735314282        5.38537408315411       -1.58092087203618
H           -9.66196466008868        5.42652887653710       -0.85086273896686
H          -10.64931631885998        3.48986025865220        0.32925568207816
H          -11.10544014911433        1.08502094502630        1.56272203698065
H          -10.91376165626616       -1.17835990981546        2.54193257089931
H           -8.77689457549269       -2.37517713136800        2.51279948864910
H           -6.77533825411187       -1.38061930522458        1.48224743427498
H           -4.73712224345418        2.66547505645641        0.78152100219764
H           -2.40842326309969        2.03054816621178        0.38224610872886
H            3.28933879291309       -1.49855748979297       -1.56406491076209
H            5.59290116560327       -0.80103971298904       -1.13994253332850
H            6.24350166332714       -1.18217217944182        1.13154415327821
H            8.21447401316012       -2.21197568012488        2.18751581251176
H           10.34093162516554       -1.00670941660580        2.34545106904871
H           10.55236183570198        1.29930143165888        1.47717370058274
H           10.11941899723932        3.76009545150983        0.33626794181107
H            9.15312988005762        5.74454710212631       -0.77935370817822
H            6.83786882875935        5.72664915251531       -1.57709267573740
H            5.39983137040556        3.75147282027889       -1.26459099958781
H            4.19398954259155        2.85754836395209        0.58903786915592
H            1.88148093287295        2.16868355510774        0.17939730373142
