  97
       -148.27369427
 C          3.1400374143       -0.7481331708        2.8718379796
 C          3.0862629391       -2.1113822244        2.1944275082
 C          1.6615614318       -2.6538832225        2.1042431806
 C          1.6100454210       -3.9816751284        1.3512019649
 C          0.1784641672       -4.4757015422        1.1497776909
 C          0.0751984445       -5.7697990018        0.3351321143
 C          0.6668271493       -5.7370810336       -1.0775297268
 C         -0.1314516483       -4.9270065513       -2.1017790986
 N         -0.1560074042       -3.5114324034       -1.8094395560
 C         -1.3319807111       -2.8302214997       -1.5251874711
 O         -2.4282882733       -3.3393656402       -1.5672872206
 C         -0.9125575236       -1.4641003985       -1.1845818757
 C         -1.4979479280       -0.3072016358       -0.7310521016
 C         -2.8741033786        0.0543753960       -0.4939269807
 C         -3.9282304749       -0.7729681465       -0.8971013882
 C         -5.2356784854       -0.4032403257       -0.6700129601
 C         -5.5343814081        0.7975946131       -0.0267647837
 N         -6.8584087030        1.1636828466        0.2130900872
 C         -7.4145173338        2.4061344076       -0.0344947257
 C         -6.8500212683        3.5272153468       -0.6255089903
 C         -7.6479688732        4.6445046460       -0.7844924289
 C         -8.9801303856        4.6512936954       -0.3786381107
 C         -9.5561693246        3.5285285372        0.1816118044
 C         -8.7738375902        2.3944281624        0.3518402502
 C         -9.0431284510        1.0791002310        0.8633626723
 C        -10.1738445990        0.4806888002        1.4028225185
 C        -10.0865035143       -0.8272783688        1.8360145378
 C         -8.8865546340       -1.5292879166        1.7532026784
 C         -7.7480041981       -0.9544164779        1.2206516478
 C         -7.8376064025        0.3497771620        0.7562486102
 C         -4.4884176117        1.6269372408        0.3804729003
 C         -3.1831993023        1.2612501405        0.1449098573
 S         -0.2399696247        0.8703136826       -0.4179515519
 C          1.0577676833       -0.2104124672       -0.8886240756
 C          2.4236915123        0.2248336378       -0.7311655897
 C          3.4990932819       -0.5978492893       -1.0853131393
 C          4.7953068059       -0.1953794311       -0.8498478248
 C          5.0603896830        1.0391967691       -0.2589130167
 N          6.3735443621        1.4220287748        0.0136578215
 C          7.3177252293        0.6441385171        0.6597431443
 C          7.1879243448       -0.6176065953        1.2216248806
 C          8.2934196497       -1.1597235585        1.8493605837
 C          9.4988975076       -0.4664010622        1.9281629791
 C          9.6249615023        0.8009862114        1.3950931209
 C          8.5274819986        1.3673735979        0.7606838427
 C          8.2966758211        2.6407697075        0.1362038809
 C          9.0991427247        3.7503808159       -0.0919247626
 C          8.5587933295        4.8312538099       -0.7599310824
 C          7.2419624829        4.8075453830       -1.2128442658
 C          6.4243125735        3.7140534559       -0.9986111236
 C          6.9537959143        2.6359600496       -0.3046327244
 C          3.9959296136        1.8799577380        0.0660149375
 C          2.7015844302        1.4761549731       -0.1678026300
 C          0.5107890711       -1.4063639558       -1.2859001248
 C          0.9786776726       -2.7192707253       -1.7553411425
 O          2.0837871055       -3.1028002298       -2.0669597176
 H          4.1630708697       -0.3808139872        2.9157255232
 H          2.7530191688       -0.8096080800        3.8866224749
 H          2.5428100102       -0.0254205468        2.3196740012
 H          3.4962621163       -2.0274293706        1.1850344477
 H          3.7070697984       -2.8187422348        2.7489828786
 H          1.0354428126       -1.9219325258        1.5863498054
 H          1.2526923250       -2.7820434006        3.1093940860
 H          2.1779384489       -4.7356259080        1.9016062152
 H          2.0994549902       -3.8426858680        0.3871320540
 H         -0.4166577359       -3.6891505378        0.6834918216
 H         -0.2678130780       -4.6633748469        2.1305344519
 H          0.5888928361       -6.5597963582        0.8891964774
 H         -0.9795220037       -6.0482960775        0.2663859403
 H          1.6902454819       -5.3644067640       -1.0523766295
 H          0.7032664291       -6.7627266440       -1.4516133982
 H         -1.1748496722       -5.2519633049       -2.1252221435
 H          0.3145795881       -5.0692930178       -3.0916815877
 H         -3.7198905752       -1.7071325519       -1.3909389132
 H         -6.0393037072       -1.0375340077       -1.0111612896
 H         -5.8255362066        3.5280006173       -0.9655859505
 H         -7.2292466958        5.5307228995       -1.2379988926
 H         -9.5695538201        5.5453711575       -0.5166299377
 H        -10.5941660458        3.5255753835        0.4779417215
 H        -11.0978379640        1.0328444425        1.4844794537
 H        -10.9546890468       -1.3131597586        2.2556060238
 H         -8.8424503697       -2.5452401929        2.1167161773
 H         -6.8195042719       -1.5032106412        1.1822800875
 H         -4.7085668914        2.5454708207        0.9028356578
 H         -2.3832666053        1.9087524182        0.4743950923
 H          3.3153924148       -1.5529817694       -1.5488518655
 H          5.6173283571       -0.8340967437       -1.1352540472
 H          6.2537941406       -1.1573584880        1.1838184050
 H          8.2186655932       -2.1420744136        2.2917201448
 H         10.3407399152       -0.9263697660        2.4235550406
 H         10.5531376439        1.3466093856        1.4724954326
 H         10.1252212161        3.7607828536        0.2431194316
 H          9.1649082913        5.7051846785       -0.9457104327
 H          6.8517065941        5.6608028433       -1.7477840685
 H          5.4117351866        3.6985418125       -1.3729099962
 H          4.1918499163        2.8334634820        0.5323317533
 H          1.8853425857        2.1278704752        0.1096269679
