97
 energy: -148.267248118680 gnorm: 0.000035121118 xtb: 6.7.1 (edcfbbe)
C           -6.21495522568477        5.37474249516544       -0.41151821005348
C           -5.00693672467544        5.03520025231242       -1.27683777571984
C           -3.80567215174141        5.94810345356773       -1.02613054003074
C           -3.18119239416638        5.73807518303382        0.35163718166554
C           -1.93757769155352        6.59739234709373        0.59047980408649
C           -0.76227927372054        6.32771587861379       -0.35542231000826
C           -0.37304617078694        4.85674103865269       -0.48952367173324
C            0.04785055780308        4.23000370211437        0.84002121226388
N            0.27896616739292        2.81073124903562        0.68747760413138
C           -0.76092353907426        1.89767129836324        0.62323338792614
O           -1.92685602501026        2.20832682353813        0.72254792649516
C           -0.11676395430922        0.59135067365421        0.43239076825313
C           -0.49768877878947       -0.72072620906948        0.28703924658556
C           -1.79100748245486       -1.35975094318401        0.26197444836223
C           -2.96986343733674       -0.63855078430766        0.48351720380655
C           -4.19393528862662       -1.26998109203639        0.45915619603816
C           -4.28419687070653       -2.63837149477550        0.20611733963425
N           -5.52530335984037       -3.27355003602345        0.17451115466242
C           -5.84617236501913       -4.45909612730855        0.81159207776161
C           -5.07808586019070       -5.24574419012535        1.65771801968767
C           -5.66159256479363       -6.37848756994625        2.19322643562317
C           -6.98071760918746       -6.72198141138965        1.90801876548345
C           -7.75945955954887       -5.92682836362472        1.09095252806457
C           -7.19463876203859       -4.78405909891287        0.54111970015009
C           -7.70498455450494       -3.74259891007907       -0.30691292413612
C           -8.93623123542948       -3.52377162751646       -0.91000896513468
C           -9.09282988824498       -2.40724835792026       -1.70684154900510
C           -8.03529910643386       -1.52630441400393       -1.91918389683849
C           -6.80064623183439       -1.72389934632284       -1.33019741705071
C           -6.64599575434938       -2.82822810693683       -0.50485688892824
C           -3.11373587270588       -3.36417150209042       -0.01951272310491
C           -1.89111857621125       -2.73392890535340        0.01231541771006
S            0.94152770520498       -1.70251900655766        0.10571934092920
C            2.03676624569182       -0.33989189295904        0.22298493324145
C            3.45780129135830       -0.57501967734967        0.13862545700729
C            4.37826044316162        0.47919867304945        0.15595504248818
C            5.73064569048861        0.23085183583304        0.07076780738090
C            6.21009410092498       -1.07490723951821       -0.02791221991686
N            7.58006802904536       -1.32365227526826       -0.10837944106689
C            8.19955162014655       -2.16370328687726       -1.01653360605368
C            7.65484750787589       -2.88832727744644       -2.06672565508593
C            8.51481019641266       -3.63190837657727       -2.85279125232368
C            9.88664337146195       -3.65105635440356       -2.61372747843253
C           10.43803116433628       -2.90846674911679       -1.58862088608526
C            9.59367727849036       -2.15415731939394       -0.78525742150500
C            9.81912362038169       -1.26809329230250        0.32304005927683
C           10.95894977571041       -0.87556569176034        1.01174295094139
C           10.82179675729054       -0.00715906974836        2.07624172882468
C            9.56667750916158        0.45347435717449        2.46630256270054
C            8.41812280528697        0.07641983836056        1.79628401232067
C            8.55277937301052       -0.77289279067770        0.70764390563585
C            5.29907768527895       -2.13194880178070       -0.04194780247387
C            3.94831662941735       -1.88262816301651        0.03673299136852
C            1.29550781637777        0.80484205278359        0.38979120170685
C            1.53732284419053        2.24685712206790        0.54791680549669
O            2.56306216861449        2.88752530079977        0.56941442167405
H           -6.49764662831325        6.41719037208108       -0.54421784700082
H           -6.00145168385259        5.20612930723081        0.64050788167223
H           -7.06350536181641        4.75229114132255       -0.68733227813862
H           -4.71083956159917        3.99962610680752       -1.09446357106353
H           -5.29431801432450        5.11762509378585       -2.32836399653111
H           -4.11428303795076        6.99147715663648       -1.13113354181895
H           -3.05852606760384        5.74572518346992       -1.79586205407606
H           -2.93940487761320        4.68201228726554        0.47916920864312
H           -3.91350365004919        5.99780209996884        1.11863512341607
H           -1.60891270398850        6.45050109156634        1.62183657936705
H           -2.21221162849714        7.65084727935009        0.49043991054078
H           -1.00698209085897        6.70464960110286       -1.35022071011425
H            0.10189946938495        6.89361169017012        0.00143663504901
H           -1.21330036973883        4.28911300303698       -0.89158932849814
H            0.45711525243316        4.77059701959025       -1.19535877800990
H           -0.74162632348264        4.35330902494557        1.58414881492593
H            0.97581143735643        4.67632383343762        1.20377457552799
H           -2.92364771845199        0.41885653427224        0.68329098801017
H           -5.09218749885444       -0.70626832504185        0.65929606913922
H           -4.06195943533906       -4.97878674136033        1.90557044392282
H           -5.08202099602883       -7.00862156105551        2.85158624280600
H           -7.39923349742665       -7.61697576417448        2.34356285656032
H           -8.78829691981458       -6.18078275104811        0.88541585060594
H           -9.74908373494538       -4.21801681510063       -0.75986020689858
H          -10.04306659990876       -2.21604197808762       -2.18262613211095
H           -8.18108609351939       -0.67073095783052       -2.56181504274508
H           -5.98383962009193       -1.04461448129197       -1.52043440350898
H           -3.17470135054029       -4.41854695382210       -0.24214414970352
H           -0.99436634342799       -3.30770768083445       -0.17258802029307
H            4.03006606465283        1.49594038640278        0.22867664753479
H            6.42736249415670        1.05495428611745        0.05831532645069
H            6.59638189300224       -2.86418040439031       -2.27715790315131
H            8.11345379540131       -4.20734056405025       -3.67389930580375
H           10.52492774354411       -4.24718358637579       -3.24863729579552
H           11.50340200340760       -2.90639067564339       -1.41475757733031
H           11.92902599402119       -1.24867838408289        0.72015602357661
H           11.69551269980443        0.31359717257413        2.62362262556245
H            9.48761566891911        1.11767814317502        3.31413561089837
H            7.44976747180503        0.42452574052029        2.12182330248917
H            5.66133782140578       -3.14750369551012       -0.09157265020987
H            3.25574395321578       -2.71206305461764        0.03326607145242
