  47
        -66.39223677
 C          2.8720184686        3.8274214060       -1.0394456700
 C          1.5524696281        3.9010991377       -0.2804430381
 C          0.4733510796        3.0425467314       -0.9399884974
 C         -0.7832082580        2.8912275594       -0.0818568015
 C         -0.6026981917        1.9037865357        1.0806552880
 C         -0.4146936725        0.4974660730        0.5889803023
 C          0.8497756966       -0.0622853969        0.4520453382
 N          2.0731617153        0.5147055218        0.7220388339
 C          3.0728323545       -0.3714085376        0.4356053275
 C          4.4474286036       -0.2153173477        0.5338055731
 C          5.2430909251       -1.2875548205        0.1780688052
 C          4.6883621454       -2.4867257719       -0.2648945798
 C          3.3201836223       -2.6457307391       -0.3670462779
 C          2.4980919728       -1.5827183873       -0.0172221636
 C          1.0754342845       -1.3869273320       -0.0096260195
 C          0.0115977967       -2.2060010591       -0.3575701650
 C         -1.2484911537       -1.6536484263       -0.2384292608
 N         -2.4572852732       -2.2456867823       -0.5196219822
 C         -3.4678926724       -1.3578283688       -0.2752702328
 C         -4.8347127360       -1.5331810786       -0.4274944271
 C         -5.6606903503       -0.4709507574       -0.1174913748
 C         -5.1328408389        0.7374636401        0.3282948107
 C         -3.7711389868        0.9155741212        0.4795811551
 C         -2.9114024344       -0.1380081674        0.1848079966
 C         -1.4812586747       -0.3241217913        0.2164258445
 H          2.7418695174        4.1786730676       -2.0603946425
 H          3.6284747635        4.4445238995       -0.5594433425
 H          3.2361520780        2.8023347164       -1.0790191201
 H          1.7128659326        3.5804716363        0.7512278635
 H          1.2127866803        4.9386586428       -0.2410919541
 H          0.2005758526        3.5032761666       -1.8919600947
 H          0.8734674181        2.0527974421       -1.1621567686
 H         -1.5981157644        2.5307889517       -0.7111207465
 H         -1.0689955312        3.8681179628        0.3157641876
 H          0.2507215216        2.2019779240        1.6908375596
 H         -1.4844080272        1.9407586939        1.7206939494
 H          2.2104771692        1.4689405442        1.0006344145
 H          4.8799193155        0.7136886065        0.8764397464
 H          6.3172230825       -1.1947500605        0.2426534760
 H          5.3440470403       -3.3013317272       -0.5342707445
 H          2.8957468918       -3.5761406227       -0.7134223192
 H          0.1617301677       -3.2165224667       -0.7039550405
 H         -2.5745220096       -3.1848755661       -0.8580452852
 H         -5.2367986604       -2.4718036489       -0.7794766429
 H         -6.7300057659       -0.5763328632       -0.2253136512
 H         -5.8032074460        1.5526286060        0.5579655149
 H         -3.3965357012        1.8678363145        0.8178522459
