  69
  -110.893791170000       0.855538703911346      !
 C          6.7510295865        0.3150841459        1.3340295939
 C          6.2563910795        1.4077486378        0.6320125694
 C          4.9724235322        1.3951289603        0.1365702975
 C          4.1475720077        0.2766838717        0.3335388182
 C          2.8074984380        0.2604901534       -0.1659131875
 N          2.2934053764        1.3184110683       -0.7696234721
 C          1.0413122354        1.3254131781       -1.1734078066
 C          0.4745212072        2.4835491371       -1.8004819126
 C          1.2371453484        3.6471569096       -1.9815510982
 C          0.6739748776        4.7630609736       -2.5584984312
 C         -0.6545122616        4.7512902855       -2.9660819633
 C         -1.4166142261        3.6029539280       -2.7953500718
 C         -0.8643600885        2.4790631501       -2.2218092717
 N          0.2227543119        0.2295160118       -0.9801038287
 C          0.7960941208       -0.7872760849       -0.3731071768
 N         -0.0199899205       -1.9061050650       -0.2006670083
 C          0.3707724137       -3.1848962179       -0.5704847555
 C          1.6459095412       -3.6841763069       -0.7735393093
 C          1.7608517844       -5.0149342262       -1.1371338347
 C          0.6375824217       -5.8184865321       -1.3080474633
 C         -0.6381904541       -5.3153604381       -1.1217537471
 C         -0.7768811549       -3.9863136830       -0.7500659764
 C         -1.9145216634       -3.1451053276       -0.4822689964
 C         -3.2807538609       -3.3874571373       -0.5599513711
 C         -4.1672009251       -2.3651297008       -0.2696646001
 C         -3.6779728965       -1.1417251403        0.1705770129
 C         -4.3503014874        0.0443972944        0.6239738309
 C         -5.6878847091        0.3999863698        0.7182277952
 C         -6.0069659035        1.6316552040        1.2598613770
 C         -5.0128876985        2.4885856325        1.7236119264
 C         -3.6733651361        2.1524764702        1.6428397704
 C         -3.3450331840        0.9340808935        1.0657926061
 N         -2.1047650879        0.3495554012        0.8796512776
 C         -0.9067653540        0.8600924945        1.3994110878
 C         -0.5365785210        2.1840133262        1.1688139623
 C          0.6538513601        2.6611931423        1.6819047297
 C          1.4749022078        1.8383377393        2.4378010374
 C          1.0878503929        0.5327344794        2.7006403493
 C         -0.0970475429        0.0425698119        2.1903956119
 C         -2.2856316493       -0.8907337701        0.3181477892
 C         -1.3946915759       -1.8765767824       -0.1148744579
 N          2.0361987561       -0.8632934370        0.0362961370
 C          4.6566915346       -0.8209250507        1.0446888542
 C          5.9427152941       -0.7957058814        1.5365580809
 H          7.7589456344        0.3304313313        1.7212295293
 H          6.8853837886        2.2726279295        0.4750323200
 H          4.5759974361        2.2371817418       -0.4099469157
 H          2.2665594894        3.6451557149       -1.6577980307
 H          1.2680350258        5.6556841554       -2.6947903337
 H         -1.0917028774        5.6305500771       -3.4155109904
 H         -2.4495578446        3.5911931158       -3.1140564880
 H         -1.4451893829        1.5792839417       -2.0859507790
 H          2.5098156864       -3.0508023376       -0.6486000722
 H          2.7420644282       -5.4358624328       -1.2960128823
 H          0.7661346106       -6.8512606969       -1.5955114111
 H         -1.5065340931       -5.9412156490       -1.2599220992
 H         -3.6388867861       -4.3602081839       -0.8580015701
 H         -5.2315430335       -2.5184688320       -0.3549697415
 H         -6.4597165464       -0.2737160578        0.3791611147
 H         -7.0413392697        1.9304997528        1.3380973366
 H         -5.2924535978        3.4349772514        2.1612866572
 H         -2.9154319443        2.8153862261        2.0289711305
 H         -1.1489999630        2.8090552594        0.5377577062
 H          0.9527154574        3.6763101813        1.4689173293
 H          2.4150948763        2.2089410811        2.8156659183
 H          1.7203755583       -0.1094685739        3.2943079443
 H         -0.4043623697       -0.9726021145        2.3968347299
 H          4.0164082283       -1.6757547914        1.2020020196
 H          6.3254484176       -1.6447322468        2.0854116464
  69
  -110.892110270000       0.144461296088654      !
 C          7.0628194364       -0.0576384390        0.3124885019
 C          6.5031777805        1.0767093498       -0.2631650285
 C          5.1382748261        1.1894106859       -0.3972260173
 C          4.2929031585        0.1578202085        0.0423928748
 C          2.8792669653        0.2483076304       -0.1569017238
 N          2.3354360049        1.3430368137       -0.6638601688
 C          1.0523571059        1.3906821489       -0.9485308584
 C          0.4666613215        2.5912159861       -1.4732013298
 C          1.2103671755        3.7790473645       -1.5354419455
 C          0.6301032771        4.9378264279       -2.0003625437
 C         -0.6961812191        4.9443520919       -2.4149265194
 C         -1.4372831448        3.7706007448       -2.3691988976
 C         -0.8680104218        2.6042959479       -1.9073333356
 N          0.2350576209        0.2953397178       -0.7601350454
 C          0.8221256970       -0.7400197383       -0.1924547711
 N          0.0147401902       -1.8595321664       -0.0152064179
 C          0.4531864027       -3.1547673932       -0.2721560699
 C          1.7436430764       -3.6526677865       -0.3132835303
 C          1.9039507689       -5.0041352922       -0.5679079008
 C          0.8100169954       -5.8322022866       -0.7973609378
 C         -0.4796304463       -5.3309106947       -0.7849394062
 C         -0.6624123455       -3.9814963579       -0.5211057009
 C         -1.8289804220       -3.1435491260       -0.4266205771
 C         -3.1730472668       -3.4092637156       -0.6595160260
 C         -4.0960407879       -2.3870766844       -0.5295066541
 C         -3.6741958684       -1.1437023743       -0.0754921705
 C         -4.4090214229        0.0446352430        0.2566399875
 C         -5.7501052427        0.3848350420        0.1558529113
 C         -6.1535068192        1.6229323236        0.6204643327
 C         -5.2414804200        2.4977233579        1.2032856038
 C         -3.9003313150        2.1760495596        1.3175000604
 C         -3.4799678533        0.9539926515        0.8121710715
 N         -2.2196553836        0.3800354030        0.8003872634
 C         -1.0949791821        0.8945875048        1.4572524851
 C         -0.7316493264        2.2336979722        1.3219261707
 C          0.3937717409        2.7084313831        1.9675037231
 C          1.1560320770        1.8689220046        2.7636623033
 C          0.7728031283        0.5465103054        2.9326422437
 C         -0.3497348037        0.0607057172        2.2944059521
 C         -2.3140408685       -0.8708212324        0.2384885879
 C         -1.3660416531       -1.8525724225       -0.0621560190
 N          2.0811196540       -0.8286552447        0.1555322053
 C          4.8685302942       -0.9748821601        0.6386259176
 C          6.2360596300       -1.0766577273        0.7662723738
 H          8.1350453270       -0.1460089127        0.4060982938
 H          7.1456295781        1.8722651455       -0.6133338929
 H          4.6923371039        2.0602669964       -0.8530029411
 H          2.2367448403        3.7636343260       -1.2022812333
 H          1.2085779408        5.8500030814       -2.0404851146
 H         -1.1478286474        5.8575907588       -2.7730941644
 H         -2.4680789938        3.7724661170       -2.6952331032
 H         -1.4330202978        1.6851573518       -1.8702839289
 H          2.5867978433       -3.0005710428       -0.1535170252
 H          2.8993251912       -5.4210448186       -0.5928895804
 H          0.9729576514       -6.8813396833       -0.9937401458
 H         -1.3264271751       -5.9737765475       -0.9703600404
 H         -3.4821296820       -4.3989656767       -0.9565742101
 H         -5.1396694885       -2.5556768625       -0.7437693000
 H         -6.4594363164       -0.3049095354       -0.2750998557
 H         -7.1908412115        1.9120695722        0.5446165712
 H         -5.5877339345        3.4482389982        1.5801311384
 H         -3.2149365674        2.8559007612        1.7973613116
 H         -1.2919318751        2.8785197290        0.6644216616
 H          0.6858149909        3.7386531809        1.8304940143
 H          2.0447143389        2.2405363527        3.2497521501
 H          1.3539368115       -0.1096502132        3.5627948433
 H         -0.6600824094       -0.9636768487        2.4411507772
 H          4.2200251178       -1.7598335087        0.9967661334
 H          6.6693871962       -1.9575991379        1.2187980486
