  68
  -116.832521050000       0.295913541145199      !
 C        -10.2159660264       -1.1897658670        1.3406095733
 C         -9.5217055750       -2.2024304360        1.9972545683
 C         -8.1416068645       -2.2511572453        1.9829673233
 C         -7.4542967072       -1.2605347507        1.2938397112
 C         -8.1714154916       -0.2420450999        0.6340158778
 C         -9.5530566373       -0.1919905598        0.6479412490
 O         -7.3353340463        0.6350102997        0.0096510456
 C         -6.0757880672        0.1913275289        0.2515643909
 C         -6.0676943914       -0.9719149368        1.0430843930
 C         -4.8649464641       -1.5627909221        1.4286335278
 C         -3.6688503793       -1.0295595309        0.9959506278
 C         -3.6824861641        0.0934566671        0.1680656295
 C         -4.8834578125        0.7486225421       -0.1855133024
 C         -4.5280566578        1.9141666749       -0.9406667081
 C         -5.2781792771        2.9174863804       -1.5383836627
 C         -4.6089683702        3.9241742673       -2.2053995131
 C         -3.2185113750        3.9297912075       -2.2811268106
 C         -2.4547098534        2.9385368624       -1.6921310834
 C         -3.1197519076        1.9288846756       -1.0155951215
 N         -2.6160949685        0.8044788859       -0.3666740066
 C         -1.2930486399        0.4057718803       -0.3890125992
 C         -0.9090352755       -0.9401336261       -0.4545178218
 N          0.3562268773       -1.2978159603       -0.4518216718
 C          1.2910142620       -0.3445469771       -0.4112154682
 N          2.6128305303       -0.7479442357       -0.4100183599
 C          3.1002474585       -1.8753760466       -1.0660666189
 C          2.4216457701       -2.8684368832       -1.7537537527
 C          3.1712343367       -3.8692497167       -2.3450434082
 C          4.5613128069       -3.8886969092       -2.2618588516
 C          5.2441706307       -2.8975661206       -1.5854541265
 C          4.5082109765       -1.8850349003       -0.9855882317
 C          4.8796478892       -0.7317435858       -0.2195789133
 C          6.0794368614       -0.2022161700        0.2306764511
 O          7.3313040163       -0.6692563759       -0.0068079406
 C          8.1800589056        0.1812638749        0.6366430524
 C          9.5599771278        0.1001880955        0.6632398915
 C         10.2378385530        1.0718885409        1.3781946598
 C          9.5594967024        2.0895627424        2.0437600268
 C          8.1810102116        2.1700479662        2.0155722293
 C          7.4789018876        1.2061744268        1.3037014234
 C          6.0888302301        0.9512579457        1.0362577864
 C          4.8949921449        1.5630539176        1.4176300222
 C          3.6914107256        1.0576012082        0.9717902442
 C          3.6884435270       -0.0588552082        0.1347009764
 C          0.9063032949        1.0018947285       -0.4544958123
 N         -0.3591486108        1.3595735400       -0.4303670182
 H        -11.2952430975       -1.1836218776        1.3702199870
 H        -10.0766657014       -2.9637495221        2.5249824522
 H         -7.6056944263       -3.0381642215        2.4910201517
 H        -10.0842372918        0.5945184311        0.1362802885
 H         -4.8732023823       -2.4315248767        2.0681098856
 H         -2.7386312610       -1.4665409542        1.3224840364
 H         -6.3551849568        2.8982619394       -1.4758238591
 H         -5.1674347756        4.7194768855       -2.6759725983
 H         -2.7223838304        4.7299886249       -2.8101754456
 H         -1.3787972894        2.9529861335       -1.7465337187
 H         -1.6268870933       -1.7407188170       -0.5562843911
 H          1.3460674141       -2.8643747043       -1.8142495956
 H          2.6639456809       -4.6566204003       -2.8826686251
 H          5.1083367766       -4.6906313736       -2.7346175485
 H          6.3208504378       -2.8971636387       -1.5171525168
 H         10.0785959931       -0.6902969553        0.1448478914
 H         11.3161562058        1.0399164330        1.4201351898
 H         10.1256270825        2.8282500700        2.5913795598
 H          7.6575931962        2.9601540365        2.5317399673
 H          4.9155812999        2.4248802054        2.0659348967
 H          2.7682949388        1.5108798478        1.2953650453
 H          1.6224814200        1.8039662557       -0.5564801644
  68
  -116.832413280000       0.264020212539522      !
 C         -9.5324876962       -0.0696756964        3.1925018519
 C         -8.5863417911       -0.0527655063        4.2138800392
 C         -7.2347027820        0.0094784042        3.9377272388
 C         -6.8352225613        0.0553139249        2.6084861584
 C         -7.8049311042        0.0371571690        1.5857403274
 C         -9.1583985531       -0.0250602117        1.8610018733
 O         -7.2305745215        0.0865222778        0.3505074973
 C         -5.8905556220        0.1323040874        0.5601276203
 C         -5.5689532764        0.1202136381        1.9298137387
 C         -4.2420337755        0.1968798431        2.3517442917
 C         -3.2278443887        0.2493822396        1.4185849751
 C         -3.5480070491        0.2151881598        0.0610610895
 C         -4.8858977996        0.1924216943       -0.3940674032
 C         -4.8522156901        0.2742194479       -1.8250125712
 C         -5.8438487812        0.2882516197       -2.7963470986
 C         -5.4611720015        0.3808369366       -4.1195929670
 C         -4.1157222525        0.4542918165       -4.4719914305
 C         -3.1142366816        0.4414945040       -3.5184543042
 C         -3.4918904234        0.3547983365       -2.1883940254
 N         -2.7075129835        0.2872636350       -1.0410854471
 C         -1.3273918772        0.2035312394       -1.0370926375
 C         -0.6162415602       -0.5898528240       -0.1271122460
 N          0.6954626337       -0.6778307970       -0.1673678826
 C          1.3520092613        0.0063099041       -1.1070993321
 N          2.7302359790       -0.1042511578       -1.1370235808
 C          3.5299067258       -0.0839661254       -2.2727125405
 C          3.1823634878       -0.1178317036       -3.6152019758
 C          4.2023000916       -0.1274904642       -4.5496254260
 C          5.5414160462       -0.1164207818       -4.1694252590
 C          5.8974071396       -0.1254869049       -2.8355156541
 C          4.8873545599       -0.1190772837       -1.8838869452
 C          4.8975170833       -0.1767716729       -0.4515953875
 C          5.8826352963       -0.2193545644        0.5240416305
 O          7.2285034796       -0.2140016400        0.3446614628
 C          7.7755625001       -0.2642126976        1.5921769129
 C          9.1237489615       -0.2770018767        1.8982443516
 C          9.4688716094       -0.3282199233        3.2373305160
 C          8.4995164335       -0.3657677815        4.2361413550
 C          7.1530809540       -0.3533486130        3.9289774987
 C          6.7823189244       -0.3019157061        2.5916411607
 C          5.5297915298       -0.2715969434        1.8848910863
 C          4.1909790593       -0.2811316314        2.2782445424
 C          3.1962717486       -0.2402492762        1.3245526290
 C          3.5532370223       -0.1913257533       -0.0212037570
 C          0.6425288760        0.8114204668       -2.0073504770
 N         -0.6691447269        0.8976047951       -1.9687068346
 H        -10.5811537175       -0.1198973390        3.4443594231
 H         -8.9196878401       -0.0893200969        5.2402721594
 H         -6.5028929430        0.0219008121        4.7308840117
 H         -9.8857364506       -0.0376094021        1.0652161938
 H         -4.0137080625        0.2254703064        3.4057395658
 H         -2.2046531414        0.3463047766        1.7445185459
 H         -6.8824566271        0.2272260379       -2.5106241913
 H         -6.2120908625        0.3975445692       -4.8952755534
 H         -3.8469510966        0.5261480626       -5.5154329807
 H         -2.0753226495        0.5089452397       -3.7965403860
 H         -1.1074975898       -1.1935675224        0.6217072307
 H          2.1529381625       -0.1618493479       -3.9352387387
 H          3.9507523257       -0.1512217376       -5.5994531405
 H          6.3067727522       -0.1194362206       -4.9307288873
 H          6.9307484926       -0.1469644367       -2.5261903363
 H          9.8693233079       -0.2473484365        1.1198198226
 H         10.5126633087       -0.3386578419        3.5128627006
 H          8.8104074433       -0.4048955935        5.2695222934
 H          6.4034223377       -0.3825524206        4.7047870987
 H          3.9405149009       -0.3222022559        3.3267194989
 H          2.1568828531       -0.2568504221        1.6068029211
 H          1.1363161248        1.4223893939       -2.7488278979
  68
  -116.832240430000       0.219887639098978      !
 C        -10.3785325620       -1.2425560894       -0.1553601903
 C         -9.7831684079       -2.4963407778       -0.0442663940
 C         -8.4120513446       -2.6330016188        0.0493774371
 C         -7.6323648072       -1.4839063463        0.0296785062
 C         -8.2499864607       -0.2218602347       -0.0824839278
 C         -9.6225084551       -0.0837183191       -0.1758050094
 O         -7.3320690720        0.7858201206       -0.0887193959
 C         -6.1173901438        0.1889074086        0.0104855148
 C         -6.2215749098       -1.2117814347        0.0930437437
 C         -5.0828468149       -2.0045650440        0.2333517040
 C         -3.8357193664       -1.4160059381        0.2523354878
 C         -3.7336794825       -0.0305735443        0.1225517174
 C         -4.8732834524        0.8010697460        0.0381521587
 C         -4.4122874096        2.1585297978        0.0295134910
 C         -5.0671113560        3.3805278352       -0.0403894139
 C         -4.3055011927        4.5319084230       -0.0234425376
 C         -2.9164686909        4.4699646140        0.0574546669
 C         -2.2468841370        3.2620145787        0.1279869504
 C         -3.0057941434        2.1030863552        0.1179583507
 N         -2.6015328939        0.7719097053        0.1424488124
 C         -1.2862836733        0.3490542816        0.0850463069
 C         -0.8826570477       -0.7836581039       -0.6339810853
 N          0.3795909034       -1.1488054515       -0.6937211994
 C          1.2883426074       -0.4082943308       -0.0550620208
 N          2.6076465853       -0.8173983166       -0.1216615009
 C          3.0325820835       -2.1411280219       -0.0844599460
 C          2.2907606489       -3.3109737906       -0.0797208706
 C          2.9788797688       -4.5078690930        0.0002149096
 C          4.3691117077       -4.5476416868        0.0757897069
 C          5.1135867690       -3.3849201968        0.0773445249
 C          4.4403865770       -2.1735429013       -0.0024274262
 C          4.8801657061       -0.8090945818       -0.0294911860
 C          6.1137686904       -0.1751106270       -0.0176672411
 O          7.3394291226       -0.7487612749        0.0846977003
 C          8.2394259094        0.2746662441        0.0568893110
 C          9.6146509129        0.1627687656        0.1458025389
 C         10.3497615096        1.3342822754        0.0997684048
 C          9.7317763845        2.5750071772       -0.0325405218
 C          8.3579775269        2.6855889123       -0.1206709203
 C          7.5990762302        1.5234335546       -0.0742907850
 C          6.1930025327        1.2257588542       -0.1230648285
 C          5.0403597192        1.9975897311       -0.2668147813
 C          3.8035123622        1.3878656155       -0.2674430393
 C          3.7267876707        0.0028669900       -0.1176861697
 C          0.8841466276        0.7201484641        0.6700256492
 N         -0.3776005713        1.0855677328        0.7291317011
 H        -11.4532801670       -1.1724675816       -0.2285376474
 H        -10.4086450461       -3.3764706292       -0.0334725733
 H         -7.9526464223       -3.6059214539        0.1337085831
 H        -10.0768225117        0.8903110413       -0.2615100420
 H         -5.1812019474       -3.0741121343        0.3331285019
 H         -2.9576256887       -2.0254244239        0.3947644961
 H         -6.1435116577        3.4149484343       -0.1054333890
 H         -4.7893886169        5.4959339468       -0.0728077983
 H         -2.3473291657        5.3876659594        0.0675258174
 H         -1.1725372430        3.2204878444        0.2005001707
 H         -1.5767205195       -1.3862569462       -1.2013041896
 H          1.2156169721       -3.2853828284       -0.1493300133
 H          2.4241101346       -5.4343892394        0.0003825673
 H          4.8677653415       -5.5036537146        0.1335813394
 H          6.1905811368       -3.4027876571        0.1393568870
 H         10.0868623133       -0.8012435107        0.2466991928
 H         11.4259230996        1.2846919947        0.1689903197
 H         10.3413049302        3.4658580546       -0.0617663733
 H          7.8805414521        3.6486253398       -0.2180219001
 H          5.1202862479        3.0668053587       -0.3847656772
 H          2.9133294042        1.9792399466       -0.4115612021
 H          1.5788131557        1.3199762942        1.2397776816
  68
  -116.831823520000       0.141449770201560      !
 C        -10.3543343584       -1.0607209181       -0.7679612334
 C         -9.8071129538       -2.3377127242       -0.6747188381
 C         -8.4576647768       -2.5245369412       -0.4475991205
 C         -7.6504040684       -1.4024563510       -0.3135467113
 C         -8.2193515515       -0.1164615404       -0.4106972476
 C         -9.5701620303        0.0719172268       -0.6372121386
 O         -7.2796550560        0.8594264095       -0.2602400534
 C         -6.0982392218        0.2183459018       -0.0744166098
 C         -6.2474206994       -1.1806025130       -0.0877055201
 C         -5.1503182831       -2.0149425550        0.1234242803
 C         -3.8963359606       -1.4684122252        0.3017619999
 C         -3.7427792358       -0.0822097003        0.2571330856
 C         -4.8475235342        0.7870264952        0.1125196367
 C         -4.3552169330        2.1284285883        0.2272329638
 C         -4.9741734953        3.3695413511        0.1715925813
 C         -4.1928457421        4.4968989317        0.3284764287
 C         -2.8194448803        4.3912839170        0.5323012586
 C         -2.1859547954        3.1631248629        0.5904428166
 C         -2.9649622855        2.0273233224        0.4404344129
 N         -2.5958662418        0.6837975351        0.4243510141
 C         -1.2886630398        0.2354237249        0.4156975509
 C         -0.8705500573       -0.8871834299       -0.3136792324
 N          0.3925306709       -1.2492272844       -0.3573784532
 C          1.2883387449       -0.5182144903        0.3091341564
 N          2.6170752304       -0.8949801091        0.2160455150
 C          3.0809298954       -2.2035916425        0.2093991150
 C          2.3759692578       -3.3923364984        0.3032863516
 C          3.1017996174       -4.5690587161        0.3191176162
 C          4.4930185664       -4.5696833744        0.2459048344
 C          5.2010284445       -3.3877592292        0.1569004885
 C          4.4899468686       -2.1955066705        0.1398157781
 C          4.8833829216       -0.8190792916        0.0584665073
 C          6.0882617852       -0.1483744906       -0.0930260230
 O          7.3322273697       -0.6859025036       -0.1685059590
 C          8.1872804259        0.3617393804       -0.3403818480
 C          9.5614162673        0.2883004298       -0.4747355965
 C         10.2454384866        1.4786636262       -0.6483815883
 C          9.5791855399        2.7007344914       -0.6854472297
 C          8.2066801664        2.7729778986       -0.5500293103
 C          7.4987063836        1.5910582155       -0.3757239989
 C          6.1103930617        1.2534350488       -0.2126030346
 C          4.9275102521        1.9921052643       -0.1946529425
 C          3.7194530817        1.3459600603       -0.0395421695
 C          3.7038675773       -0.0414567314        0.1040797057
 C          0.8680948965        0.5783912888        1.0699933890
 N         -0.3952068083        0.9430796666        1.1117938509
 H        -11.4132312679       -0.9512568785       -0.9470349179
 H        -10.4533646901       -3.1959631863       -0.7831046894
 H         -8.0356807379       -3.5152990518       -0.3764874352
 H         -9.9868909904        1.0637080819       -0.7089681867
 H         -5.2859299159       -3.0846771112        0.1527016650
 H         -3.0567622488       -2.1142364022        0.5025146090
 H         -6.0386749522        3.4364370317        0.0092099953
 H         -4.6487932112        5.4750807752        0.2941005783
 H         -2.2331933933        5.2903039039        0.6515739250
 H         -1.1244979101        3.0890291260        0.7588870521
 H         -1.5503787171       -1.4802600479       -0.9068395803
 H          1.2990382999       -3.3963300697        0.3510654997
 H          2.5772118208       -5.5104538082        0.3885384108
 H          5.0215991129       -5.5111774875        0.2597919809
 H          6.2785896505       -3.3767140735        0.1034818727
 H         10.0710927187       -0.6613517775       -0.4463614788
 H         11.3192798328        1.4588273473       -0.7574737565
 H         10.1498459096        3.6071010743       -0.8229294492
 H          7.6919667206        3.7211341306       -0.5792113948
 H          4.9608292203        3.0636192074       -0.3141805503
 H          2.8004294311        1.9099807839       -0.0601221063
 H          1.5516028596        1.1564180668        1.6754387924
  68
  -116.830529300000       3.596001926738644E-002 !
 C        -10.0752123503       -1.9383089606       -0.1818612064
 C         -9.3088745076       -3.0989127794       -0.1124503012
 C         -7.9304199061       -3.0436595210       -0.0530377065
 C         -7.3209525923       -1.7959625643       -0.0653077533
 C         -8.1090085078       -0.6299124451       -0.1375053161
 C         -9.4894744794       -0.6844285802       -0.1954232441
 O         -7.3381302359        0.4949483316       -0.1448892521
 C         -6.0501584541        0.0703456569       -0.0850155222
 C         -5.9609821049       -1.3328830049       -0.0266173852
 C         -4.7252577381       -1.9693372528        0.0796215961
 C         -3.5695887904       -1.2185445675        0.0818504927
 C         -3.6581703950        0.1690945283       -0.0339337769
 C         -4.8984177516        0.8448237175       -0.0753139373
 C         -4.6153972473        2.2512369015       -0.0671950062
 C         -5.4223851955        3.3803858067       -0.0903304010
 C         -4.8136580081        4.6194919216       -0.0618501954
 C         -3.4263690812        4.7361703030       -0.0158007644
 C         -2.6050399490        3.6234327178        0.0062192371
 C         -3.2107479489        2.3780639509       -0.0160816076
 N         -2.6381413483        1.1119058556       -0.0317996702
 C         -1.2911473633        0.8218453048       -0.1251632977
 C         -0.8285972218       -0.2887576541       -0.8477331758
 N          0.4271463209       -0.6628931184       -0.7870943329
 C          1.2840028393        0.0735643921       -0.0761317389
 N          2.5575194676       -0.4501995426        0.0754375510
 C          2.8026850655       -1.7970330926        0.3172319654
 C          1.9103134338       -2.8403612025        0.5036360248
 C          2.4303539135       -4.0897550665        0.7854505117
 C          3.8033604442       -4.3033892481        0.8830561200
 C          4.6975377956       -3.2666347393        0.7063700332
 C          4.1928392983       -2.0042564090        0.4247130117
 C          4.8076196155       -0.7295464766        0.1995271334
 C          6.1153131994       -0.2791037623        0.1077833117
 O          7.2504751872       -1.0075360982        0.2540961697
 C          8.2827509377       -0.1430278355        0.0447667907
 C          9.6298690730       -0.4514619710        0.0818167624
 C         10.5217797288        0.5761326959       -0.1691920487
 C         10.0809329556        1.8674647197       -0.4461732344
 C          8.7345661564        2.1741568946       -0.4818789388
 C          7.8196852109        1.1588545802       -0.2347704381
 C          6.3840941980        1.0685608136       -0.1935500523
 C          5.3423771727        1.9710100593       -0.4105649718
 C          4.0332695512        1.5441523513       -0.3227466837
 C          3.7724143995        0.2102345362       -0.0100651754
 C          0.8571221056        1.2837424962        0.4833685387
 N         -0.4150510857        1.6282537930        0.4740380309
 H        -11.1508153033       -2.0182213028       -0.2270599139
 H         -9.8049165154       -4.0580160086       -0.1056266488
 H         -7.3364885289       -3.9432492794        0.0004359895
 H        -10.0784479777        0.2169023387       -0.2511182239
 H         -4.6778945049       -3.0432985979        0.1669127150
 H         -2.6148526352       -1.7054124110        0.2002121110
 H         -6.4958584720        3.2782811099       -0.1281996811
 H         -5.4188251131        5.5137332217       -0.0743591614
 H         -2.9810768297        5.7197308820        0.0063269447
 H         -1.5321573778        3.7151727616        0.0509413100
 H         -1.4698371555       -0.8625127771       -1.5008846415
 H          0.8464230192       -2.6863698435        0.4224789749
 H          1.7549346458       -4.9194091038        0.9327267904
 H          4.1683647623       -5.2955335581        1.1026536625
 H          5.7626378303       -3.4185662332        0.7863962809
 H          9.9623121268       -1.4546275902        0.2954518835
 H         11.5815248609        0.3710957584       -0.1511190742
 H         10.8091807373        2.6414727377       -0.6373427663
 H          8.3968615863        3.1760906884       -0.6981236456
 H          5.5642002819        2.9973410256       -0.6580487695
 H          3.2270683785        2.2324569026       -0.5215391526
 H          1.5311753155        1.9684717383        0.9769639726
  68
  -116.830417270000       3.193996916286589E-002 !
 C        -10.0713471512       -1.9484614927       -0.0807823289
 C         -9.3020144175       -3.1087837210       -0.0527930668
 C         -7.9223475432       -3.0525024859       -0.0417030691
 C         -7.3146494795       -1.8040085622       -0.0594904540
 C         -8.1058542324       -0.6382784444       -0.0905268598
 C         -9.4874613968       -0.6938193224       -0.1005109410
 O         -7.3368615872        0.4877478179       -0.1077354021
 C         -6.0472158083        0.0643749231       -0.0919327397
 C         -5.9546226864       -1.3393076543       -0.0560447825
 C         -4.7153065194       -1.9740921039        0.0088424398
 C         -3.5611445551       -1.2208297139       -0.0033300950
 C         -3.6541989427        0.1684109596       -0.0934276015
 C         -4.8969568557        0.8408808793       -0.0991365902
 C         -4.6184989433        2.2478512075       -0.0744448591
 C         -5.4301389253        3.3738019718       -0.0644869355
 C         -4.8256296374        4.6147040357       -0.0276149674
 C         -3.4381575821        4.7358903004       -0.0059401812
 C         -2.6124555340        3.6262569734       -0.0172234860
 C         -3.2136901868        2.3788260146       -0.0476241490
 N         -2.6372307373        1.1150215717       -0.0946275231
 C         -1.2889441113        0.8320141770       -0.1884075469
 C         -0.8175947540       -0.2725008223       -0.9149663354
 N          0.4377139953       -0.6461778539       -0.8420233435
 C          1.2865667663        0.0876332928       -0.1191550052
 N          2.5568814858       -0.4387348126        0.0512431699
 C          2.7943285682       -1.7825891516        0.3151693874
 C          1.8962135963       -2.8216364207        0.4974306179
 C          2.4082300630       -4.0688672385        0.8026049400
 C          3.7787637797       -4.2842281825        0.9276651353
 C          4.6784832940       -3.2516383482        0.7549235174
 C          4.1819622853       -1.9916446041        0.4490956780
 C          4.8037415734       -0.7218724399        0.2155244792
 C          6.1139770766       -0.2770838888        0.1329537551
 O          7.2444988264       -1.0063003902        0.3081024332
 C          8.2823956320       -0.1507201885        0.0903057637
 C          9.6276824073       -0.4638066208        0.1482357456
 C         10.5265087768        0.5530455155       -0.1210680860
 C         10.0939853290        1.8384598066       -0.4359397596
 C          8.7494515923        2.1504301119       -0.4899428345
 C          7.8276495232        1.1461458663       -0.2240784031
 C          6.3912721929        1.0628333568       -0.1941716571
 C          5.3552778670        1.9649848779       -0.4387755400
 C          4.0436455527        1.5448313666       -0.3564524871
 C          3.7745781540        0.2172044105       -0.0245413758
 C          0.8546005141        1.2984930565        0.4348036416
 N         -0.4182747862        1.6394938477        0.4173314926
 H        -11.1478350820       -2.0291717523       -0.0873985376
 H         -9.7967097750       -4.0685161490       -0.0396438874
 H         -7.3262257119       -3.9519279793       -0.0202933185
 H        -10.0787383260        0.2074474301       -0.1225040289
 H         -4.6634632549       -3.0492709398        0.0764890162
 H         -2.6038306484       -1.7087326117        0.0852246443
 H         -6.5037028384        3.2677258011       -0.0838675003
 H         -5.4341463309        5.5066415133       -0.0141194673
 H         -2.9960087437        5.7206683757        0.0237054698
 H         -1.5393865624        3.7221609251        0.0089077620
 H         -1.4504975848       -0.8418142339       -1.5799296780
 H          0.8343056638       -2.6662036351        0.3951361144
 H          1.7283855781       -4.8953354980        0.9472831988
 H          4.1373622954       -5.2743311935        1.1662164379
 H          5.7415904646       -3.4048452399        0.8561946749
 H          9.9534994984       -1.4628021588        0.3899047101
 H         11.5850916835        0.3439407996       -0.0881506596
 H         10.8274375778        2.6036975915       -0.6419879430
 H          8.4184393211        3.1480310646       -0.7347386663
 H          5.5837209023        2.9857245585       -0.7028437281
 H          3.2416502086        2.2323008808       -0.5746527043
 H          1.5246026828        1.9856495083        0.9306741177
  68
  -116.829395110000       1.082884858448808E-002 !
 C         -9.9785488789       -2.1018648791       -0.0486868557
 C         -9.1742198356       -3.2385564595       -0.0428464922
 C         -7.7969613677       -3.1404148974       -0.0548916800
 C         -7.2279520190       -1.8738486040       -0.0734108882
 C         -8.0541402408       -0.7323266178       -0.0814678907
 C         -9.4333999151       -0.8298721183       -0.0683514163
 O         -7.3195688770        0.4164881169       -0.1029081440
 C         -6.0176399434        0.0321302331       -0.1128936773
 C         -5.8827954260       -1.3684285557       -0.0900687979
 C         -4.6246134603       -1.9669254573       -0.0521735358
 C         -3.4938155223       -1.1796251564       -0.0782309503
 C         -3.6292916426        0.2069359325       -0.1548934196
 C         -4.8910417641        0.8426484633       -0.1333472286
 C         -4.6529886127        2.2569671581       -0.0985907692
 C         -5.4964534139        3.3586656594       -0.0612296746
 C         -4.9274239085        4.6160862317       -0.0185193110
 C         -3.5438748174        4.7775232805       -0.0184081068
 C         -2.6866654615        3.6926655323       -0.0575440153
 C         -3.2522536276        2.4288491914       -0.0935035187
 N         -2.6402679106        1.1831692425       -0.1636662972
 C         -1.2867565176        0.9338363078       -0.2681064344
 C         -0.7959577718       -0.1635976175       -0.9941403205
 N          0.4574104494       -0.5333130990       -0.8882552106
 C          1.2882929960        0.2033342553       -0.1488108321
 N          2.5421420888       -0.3420107000        0.0808402720
 C          2.7324792757       -1.6786464793        0.4088163394
 C          1.7967646400       -2.6722414328        0.6470340246
 C          2.2628017107       -3.9192233421        1.0188260643
 C          3.6249365163       -4.1776600848        1.1544622835
 C          4.5618781626       -3.1900112922        0.9258660564
 C          4.1117660278       -1.9303637961        0.5535578576
 C          4.7770436730       -0.6954034561        0.2608032416
 C          6.1015410304       -0.3002687334        0.1572335896
 O          7.2063386663       -1.0627820577        0.3532721016
 C          8.2726026340       -0.2537792693        0.0982505986
 C          9.6059423640       -0.6143666872        0.1559302464
 C         10.5390059900        0.3592053989       -0.1537786929
 C         10.1509767836        1.6489514209       -0.5067213519
 C          8.8182441547        2.0078882411       -0.5625243723
 C          7.8625206529        1.0471183877       -0.2583226562
 C          6.4241553296        1.0163359169       -0.2193496656
 C          5.4194476417        1.9451238796       -0.4938883194
 C          4.0942129863        1.5731550118       -0.3979568672
 C          3.7809205424        0.2679884772       -0.0197919777
 C          0.8488922456        1.4297531062        0.3636776458
 N         -0.4269217017        1.7588850967        0.3278551090
 H        -11.0520288368       -2.2152530183       -0.0376335135
 H         -9.6393573940       -4.2129407769       -0.0287121309
 H         -7.1734538208       -4.0213266179       -0.0505187961
 H        -10.0521361635        0.0530014952       -0.0731403714
 H         -4.5398265484       -3.0405197096        0.0064238160
 H         -2.5214135617       -1.6400342772       -0.0101746208
 H         -6.5666970714        3.2217650620       -0.0637942046
 H         -5.5612062995        5.4896441052        0.0166842127
 H         -3.1300861445        5.7743599897        0.0167804765
 H         -1.6164907789        3.8190203969       -0.0481199796
 H         -1.4098628992       -0.7287553890       -1.6800347168
 H          0.7406035269       -2.4830163106        0.5403262919
 H          1.5532148855       -4.7104980852        1.2099522299
 H          3.9471724783       -5.1659420060        1.4464350921
 H          5.6187236131       -3.3772298533        1.0351506945
 H          9.8969313510       -1.6164109951        0.4276549625
 H         11.5894479928        0.1121196652       -0.1229130778
 H         10.9101406943        2.3797592085       -0.7424929548
 H          8.5219063503        3.0082976963       -0.8383513499
 H          5.6828230660        2.9477127084       -0.7927108087
 H          3.3147826688        2.2789738377       -0.6386616300
 H          1.5115862317        2.1373059091        0.8401793470
