42
 energy: -63.816992923003 gnorm: 0.000027909056 xtb: 6.7.1 (edcfbbe)
C            5.00043445603389        0.83477847208588        0.71283194352857
C            3.82505730646337        1.11939506184168        1.39090082010814
C            2.65911694542113        0.45001502811409        1.07740240167291
C            2.64465921474857       -0.52803925047905        0.07444508208360
C            1.42279388979335       -1.27287406332266       -0.20999594967353
C            1.50118548150276       -2.65585006366373       -0.32241944691387
C            0.37120607087929       -3.44424602383471       -0.32816679051758
C           -0.90753613860352       -2.87298081878511       -0.14764627955366
C           -2.05299904017463       -3.67145307082145       -0.04980722811203
C           -3.30300460787900       -3.09106094356252        0.12866335035386
C           -3.43080235226070       -1.72697135256679        0.22127858832347
C           -2.30358190756092       -0.87305188719667        0.13265884816878
C           -2.41204966726364        0.54634052680261        0.23871097458981
C           -3.60159452340367        1.19426884378339        0.65511468850107
C           -3.70235811626363        2.56570577343574        0.65711833789365
C           -2.64182335717188        3.35220186091423        0.23196966204904
C           -1.43235492424199        2.76136309754338       -0.17123465063461
C           -0.35387349189119        3.54283735593755       -0.62640361569791
C            0.81047881246378        2.93824416645520       -1.07688600465458
C            0.96619933149900        1.57504908408967       -0.99953908943295
C           -0.04867374185643        0.74926887429835       -0.44261521694559
C            0.12751383267520       -0.64479113060386       -0.23104733219661
C           -1.02654301078205       -1.45603101221053       -0.07612777820698
C           -1.29911868683981        1.34401640303811       -0.12471497564893
C            3.84161733252390       -0.81655160302197       -0.58858385922044
C            5.00225686831556       -0.13596613648966       -0.27793524204035
H            5.91023456519104        1.36357231763336        0.95622039072478
H            3.81929447416007        1.86686453711311        2.17127225013612
H            1.75171377368111        0.66062062819672        1.62442167925451
H            2.47419966141542       -3.12589278841581       -0.33762751789703
H            0.45686300823158       -4.51870945215181       -0.39733784833452
H           -1.95542464338666       -4.74436202116184       -0.12735832657476
H           -4.18022653771866       -3.71935537542215        0.19012003195144
H           -4.41394584506677       -1.30123585170246        0.33917664408470
H           -4.44000277930887        0.60788943128972        0.99421610030502
H           -4.61879028264062        3.03563049479797        0.98521247082526
H           -2.73015811590804        4.42859248416774        0.21832183716550
H           -0.46490239733200        4.61638980589530       -0.66632669840457
H            1.60035673998232        3.54341072583001       -1.49855345338198
H            1.85238558612551        1.11852729071766       -1.40787687868617
H            3.84660218360859       -1.55507971209526       -1.37757478455433
H            5.91458851004658       -0.36035585344213       -0.81213279857330
