42
 energy: -63.876475245702 gnorm: 0.000047917094 xtb: 6.7.1 (edcfbbe)
C            4.95929574909729        0.78585013124555       -0.60211707198485
C            4.84843267426209       -0.04196828592482        0.50225375226998
C            3.65610371664516       -0.69240897667854        0.76680782639687
C            2.55165361707383       -0.50861393167383       -0.06107653486552
C            1.30072247341271       -1.25830045772654        0.16393153202635
C            1.42587904823887       -2.65883526699956        0.21513083593587
C            0.33129530655556       -3.46986581046894        0.29139592775385
C           -0.96459850118837       -2.92016641420276        0.22349156194618
C           -2.10577523220090       -3.74499997052544        0.21344895046559
C           -3.35424439449652       -3.19425785453508        0.11193578788112
C           -3.50288647856567       -1.81397814426069       -0.02582835182880
C           -2.41156298414407       -0.96248381942061       -0.03073500264508
C           -2.55339024556797        0.47547912744670       -0.22224576935592
C           -3.73637602711899        1.06117737562547       -0.63820962829454
C           -3.87305575089865        2.44794441259821       -0.71781469580154
C           -2.84385520028041        3.26725822265407       -0.34083137445640
C           -1.61323656114575        2.71963891633510        0.07394037844167
C           -0.55501494262892        3.54299898534178        0.50854688353518
C            0.60850865289776        2.98384735699049        0.96214505375204
C            0.79934454252157        1.60240345475559        0.90385763452112
C           -0.17395725099740        0.75962703985195        0.39633730794262
C            0.03637962498138       -0.67402282438069        0.22904447212287
C           -1.11216836449846       -1.51008302475741        0.15057120184782
C           -1.44338310725972        1.30972211263400        0.07252072651446
C            2.67658930047721        0.31747144948719       -1.17706633914277
C            3.87090815148432        0.95942404868792       -1.44293775626246
H            5.89116318274245        1.29137640744403       -0.80970869959599
H            5.69414661880065       -0.18404310146217        1.15998134477667
H            3.56943565329599       -1.33166037053376        1.63453905749654
H            2.41859511384660       -3.08541215421568        0.18674292843672
H            0.44214077033918       -4.54214283010022        0.36499518712921
H           -1.97520671544263       -4.81522406536240        0.28513093980040
H           -4.23293050187439       -3.82312453963217        0.11961946122605
H           -4.50118544766487       -1.41788646817314       -0.12457911539006
H           -4.58187589165737        0.44993457828506       -0.91198989054946
H           -4.81020588393188        2.86743313395074       -1.05500896269086
H           -2.95808313052672        4.34176164494240       -0.35329435739560
H           -0.69188798673874        4.61489210490250        0.50397421431623
H            1.40081258168890        3.60689545022589        1.35163246240513
H            1.72918459914486        1.19773694791839        1.26779957999164
H            1.82897059844371        0.45064349241475       -1.83425508887390
H            3.95532062286693        1.59595891728914       -2.31207536979861
