42
 energy: -63.876494614906 gnorm: 0.000029588551 xtb: 6.7.1 (edcfbbe)
C            5.06983679257218        0.77815485304911        0.62686615649431
C            3.97530706180082        1.00458245713466        1.44687688348280
C            2.77440000946037        0.36878261451906        1.19629322685935
C            2.64885589773736       -0.50373057149154        0.11623221680922
C            1.38910426118577       -1.24380401775678       -0.09008312624444
C            1.49274980187167       -2.64703339434962       -0.08558115984162
C            0.38626672227344       -3.44363567858746       -0.13955645234677
C           -0.90146641543026       -2.87221240537055       -0.10254877956935
C           -2.05559783186291       -3.67821899364243       -0.06951626658682
C           -3.29579282761600       -3.10468097551660        0.00307555989200
C           -3.42369188427690       -1.71807824071603        0.08806245073904
C           -2.31920829636518       -0.88403065145427        0.06689603937663
C           -2.43913400529472        0.56224897766198        0.20290444460179
C           -3.61438201860822        1.18195030264311        0.59046375039158
C           -3.72902289109384        2.57274085693405        0.61677082699291
C           -2.68528530035285        3.36082068559429        0.21400160869895
C           -1.46191799716629        2.77841243278606       -0.17396410029807
C           -0.38866186199029        3.56737576383853       -0.63470295071901
C            0.76741199654776        2.97271095791035       -1.06139964161903
C            0.93567790894184        1.59154998142548       -0.94982879742104
C           -0.05283565503493        0.78497882107947       -0.41375998108280
C            0.13426882179674       -0.64361953070958       -0.18754781267680
C           -1.02756054494262       -1.45831490408665       -0.08482705369283
C           -1.31470162242674        1.36713113708490       -0.11768272398122
C            3.75914070439766       -0.73973354547465       -0.69039832328570
C            4.95824247992076       -0.09565640986577       -0.44139070054147
H            6.00687806805786        1.27886268322872        0.82248930702973
H            4.06013345907520        1.67808658141235        2.28762871252630
H            1.92199377347877        0.54340088948164        1.83738908312192
H            2.47830428177279       -3.08761104955737       -0.03236158666005
H            0.48113738935878       -4.51948853447806       -0.17117920240881
H           -1.94159491348643       -4.75229368274941       -0.10005514218881
H           -4.18417361803075       -3.71975664825606        0.01329957800440
H           -4.41613284683648       -1.30297638576949        0.16575926453727
H           -4.47084250794982        0.59503486180784        0.88285648192704
H           -4.66067436637755        3.01953129807144        0.93351896322567
H           -2.78235870790613        4.43668759225624        0.18518349366764
H           -0.50789674367534        4.64074372464573       -0.67148345940992
H            1.57091049671335        3.56784434621740       -1.47106380515722
H            1.86036774816891        1.15819877067262       -1.29330787954324
H            3.67209874063744       -1.41575182553014       -1.52973712436312
H            5.80882896529863       -0.27905706463164       -1.08242904095800
