50
 energy: -71.647289981599 gnorm: 0.000060206156 xtb: 6.7.1 (edcfbbe)
C           -7.48634191619803        2.20519661282102       -0.60339300544213
C           -6.58405132493319        1.71596329479787        0.39865980863659
C           -5.65750551884416        0.69110201052768        0.22406097057420
C           -5.52254445975575        0.01831036424345       -1.02124711653518
C           -4.61008632361809       -0.99054156758698       -1.18501999403093
C           -3.78573357202314       -1.39142503995768       -0.12962501238913
C           -2.80435955908706       -2.51982576739514       -0.31488607036790
O           -1.66395468863576       -2.44929595035234        0.51868678159188
C           -0.75248162147451       -1.45158268905432        0.30550912795623
C            0.37613698397315       -1.47603244166168        1.12579767351587
C            1.35858753549801       -0.52100073340517        0.98842117741241
C            1.25954398011300        0.48974052446839        0.03311573090413
C            2.36062601432667        1.53684433455108       -0.03807998683967
C            2.17421087781117        2.46543443493241        1.17137489764213
C            2.29682513888200        2.38929793438291       -1.31467581983795
C            3.70775499149420        0.82995578906080       -0.04311718303985
C            4.78020841328990        1.21884058103008        0.74919056291451
C            5.99770666617612        0.56684637919658        0.67892835036374
C            6.17174499098221       -0.49700316711751       -0.19703799768497
O            7.38797997901177       -1.11724686137238       -0.23905721025717
C            5.10904654737733       -0.89422413400857       -0.99919581291253
C            3.89798133009345       -0.23487340232534       -0.91855765641540
C            0.13088638265905        0.50786104141828       -0.77016793690217
C           -0.86702983244973       -0.44703561753770       -0.64411771944624
C           -3.90638317242256       -0.74671406714306        1.10317781800276
C           -4.80873432248942        0.26982753355004        1.28226432615805
H           -7.22767504864160        3.04699218255101       -1.22335149190814
H           -8.48026500922832        1.80253509481102       -0.70270246422932
H           -6.62503311414114        2.18002329436910        1.38366390553033
H           -6.15843816395615        0.32665054718932       -1.83841329974033
H           -4.52115952316727       -1.48698235723673       -2.14198653210125
H           -2.50310003383633       -2.59496712082913       -1.36938590485932
H           -3.27838234666682       -3.46815090345330       -0.02962012317134
H            0.45882942511904       -2.25896380583427        1.86450589496898
H            2.22767109769907       -0.56407531141563        1.62897106477772
H            2.33480378113129        1.92855442740075        2.10296912079393
H            1.15605972127676        2.85061269887789        1.17332175339402
H            2.85691012004802        3.31029605815206        1.12165139021616
H            2.29710440220695        1.76211289494677       -2.20275823339943
H            1.40824405993158        3.01602333039459       -1.31912732258015
H            3.17025640363963        3.03759404851802       -1.35684803333664
H            4.68216828721567        2.04030702988337        1.44030990274751
H            6.82668841603038        0.87140306479047        1.29937557061128
H            7.36241477458387       -1.83265400651891       -0.88811669291719
H            5.23225843689662       -1.72139778249026       -1.68626221462297
H            3.07957725927456       -0.56204191047224       -1.54358521443976
H            0.00219608558937        1.27335584076888       -1.51869313781008
H           -1.73244901564404       -0.38539576883956       -1.28524447031851
H           -3.26870175522360       -1.05747648746362        1.91897955155628
H           -4.88706085636962        0.76126728313430        2.24132121651486
