50
 energy: -71.757890701836 gnorm: 0.000041937725 xtb: 6.7.1 (edcfbbe)
C           -7.54933291362019        2.17149093629800       -0.46928370319304
C           -6.64207071866003        1.72705257035443        0.39286346501926
C           -5.67564889637982        0.65678367252486        0.17392057512651
C           -5.54669061297367       -0.01897324302531       -1.04117828771944
C           -4.61446371226498       -1.02446539140720       -1.19777982478643
C           -3.78390293448805       -1.39329675455604       -0.14530123912613
C           -2.78569460905679       -2.51268254673092       -0.31754662327836
O           -1.65754409533528       -2.42755551127961        0.52930570886258
C           -0.74503032843463       -1.43090090993345        0.31384434787208
C            0.37611273347204       -1.44590756017991        1.14452783333676
C            1.36030181863288       -0.49321385193836        1.00428953109888
C            1.27030631157742        0.50610475693412        0.03602224214507
C            2.37688349216633        1.54694863673675       -0.04150201343552
C            2.19948857475537        2.48240182732935        1.16396640479218
C            2.31613084899283        2.39420596987562       -1.32155325775314
C            3.71881470374972        0.83000255643108       -0.04577023940162
C            4.79734743932279        1.21739351434929        0.73894205044160
C            6.00890677944210        0.55420373720093        0.67078842535851
C            6.17056571778191       -0.51990495236838       -0.19501127493941
O            7.38080843904656       -1.15188325894146       -0.23432421443755
C            5.10191774306786       -0.91520112675274       -0.99014838782460
C            3.89702098950005       -0.24438882974485       -0.91198024520512
C            0.14824744487496        0.51590469920122       -0.77646650078367
C           -0.85149676855915       -0.43689288872648       -0.64764306882808
C           -3.90695288046908       -0.73089061592336        1.06873440406649
C           -4.83330299515483        0.28145511369592        1.22227825366407
H           -8.22269082262216        2.97029927694117       -0.20823040729438
H           -7.66369773395609        1.76543033810913       -1.45978953719899
H           -6.58943814299766        2.18120737499002        1.37547688848376
H           -6.17655793645585        0.24715831487314       -1.87561185878393
H           -4.52693780476831       -1.53191073705375       -2.14866850021429
H           -2.47141728154427       -2.58536963910481       -1.36806297226006
H           -3.25599635656584       -3.46330003525607       -0.03669146648007
H            0.45212434841145       -2.22031352562475        1.89284409532641
H            2.22425266074553       -0.52978611915174        1.65210340567464
H            2.35876892650797        1.94920990564369        2.09785612863510
H            1.18406179424475        2.87469350045599        1.16633401387365
H            2.88780465878926        3.32232281334410        1.10866897472828
H            2.31792474155190        1.76352608495330       -2.20715704687538
H            1.42792137929861        3.02147788207104       -1.33012413043823
H            3.19008017359002        3.04174118097863       -1.36458275210433
H            4.70883744513608        2.04634010722454        1.42239559248539
H            6.84269476578367        0.85767731853699        1.28529271748048
H            7.34648463811964       -1.87363939236444       -0.87591881168774
H            5.21544331140643       -1.75007524546525       -1.66952614227096
H            3.07381439951017       -0.57017822461210       -1.53140553226276
H            0.02652067825499        1.27247102822993       -1.53515924119398
H           -1.71115235073209       -0.38196253309622       -1.29708215407452
H           -3.26514782080977       -1.01033323991378        1.89206437549234
H           -4.91121839372728        0.78900088518850        2.17359065307898
