50
 energy: -71.755584371022 gnorm: 0.000036785208 xtb: 6.7.1 (edcfbbe)
C           -9.22848873497937       -0.69316447979705       -0.42976917881016
C           -8.06985617373594       -1.33811710398477       -0.35763062213120
C           -6.75632386958554       -0.74763334423497       -0.12466688320700
C           -5.66936270262613       -1.58920639052431        0.12278283571127
C           -4.40963475070434       -1.07793950979597        0.36067215147794
C           -4.19155013033333        0.29442115790127        0.34237044726901
C           -2.81508572799749        0.84445107927993        0.60486922187066
O           -1.88549505944457        0.12968959589550       -0.19065014160595
C           -0.56186656490951        0.45216204723676       -0.10261765023852
C           -0.02633014225240        1.43762723902987        0.71442185851116
C            1.34071177920715        1.67522113155053        0.71512619289539
C            2.20507408199725        0.94496061172493       -0.08354421102738
C            3.70410609646828        1.19409081223406       -0.15045241889364
C            4.21784597583209        2.07910131797836        0.99545472817115
C            3.98014171181242        1.91644545545741       -1.47802663297572
C            4.42619028008774       -0.14023973606241       -0.03809466703339
C            4.04796830502455       -1.02074689808739        0.97356792914101
C            4.68734640767764       -2.22890152486119        1.15630209159871
C            5.73901157394147       -2.59037074527267        0.32006632067133
O            6.35176352934954       -3.79354123086759        0.52546079656006
C            6.12922326322677       -1.72241006500255       -0.68908871488564
C            5.47875807450214       -0.51176031330783       -0.86144613205655
C            1.65398382198499       -0.04205137116561       -0.90040984161816
C            0.29980881359965       -0.28902344841426       -0.91328100024923
C           -5.26300552998101        1.13945958548137        0.08311762953877
C           -6.52620148983148        0.62849478150598       -0.14233201513689
H          -10.15179046279213       -1.22034490685938       -0.60083445242681
H           -9.30991091611441        0.37454404285359       -0.31761229721923
H           -8.06380031661194       -2.41674991251058       -0.46213966827496
H           -5.82043132653578       -2.65962595298745        0.13607297074048
H           -3.57900430933622       -1.74167143401308        0.55046531387695
H           -2.56568394626847        0.72039279517366        1.67101408613982
H           -2.78136734849312        1.91481884761835        0.36030132440751
H           -0.65691853739302        2.03248279765720        1.35706547703294
H            1.71573426505148        2.45119540992708        1.36331176730666
H            3.93901266739071        1.66611748190865        1.96168361695092
H            3.82698893784793        3.09031032970314        0.91064780327932
H            5.30420356090927        2.13007838713820        0.94980008931788
H            3.74734808739256        1.27658720239317       -2.32551519535364
H            3.35231030701634        2.80347445679823       -1.54079178008351
H            5.01892894829459        2.23170799559544       -1.54072046844331
H            3.22828824434613       -0.75753709867513        1.62622708516796
H            4.38782211795926       -2.90700347746760        1.94062427587555
H            7.05831365921433       -3.91046368456939       -0.12342167827305
H            6.94623423149364       -1.99328975360995       -1.34545232314784
H            5.81075859067253        0.13622832269182       -1.65664300608964
H            2.30228568511937       -0.63392150144462       -1.53017195177524
H           -0.12237129657576       -1.05504045838420       -1.54578470118210
H           -5.10688496641303        2.20879013131841        0.05729333348171
H           -7.33879871450048        1.30790132584625       -0.34762071485463
