  76
  -114.810820142100       0.273955174454325      !
 C         -5.0504198914        2.6695612757        1.9449375294
 C         -5.5178413503        2.0641620886        0.7900951589
 C         -4.7654773282        1.0992689134        0.1489778163
 C         -3.5279464420        0.7140208952        0.6647529047
 N         -2.7510046907       -0.2522066980        0.0223579131
 C         -3.3350936980       -1.3411896774       -0.6267279837
 C         -2.7497933062       -1.8682767293       -1.7795030857
 C         -3.3105188348       -2.9593256354       -2.4119504173
 C         -4.4693432464       -3.5375032523       -1.9199181609
 C         -5.0599843632       -3.0144957316       -0.7815476472
 C         -4.4991148747       -1.9309857141       -0.1336306727
 C         -1.3541458641       -0.1244503991        0.0312121924
 C         -0.7797431912        1.1304099785       -0.1261375968
 C          0.6052426891        1.2682563214       -0.0921885461
 C          1.4349561511        0.1357607870        0.0456089791
 C          0.8261099020       -1.1303514260        0.1729739695
 C         -0.5604986609       -1.2525961978        0.1927722123
 N          1.6150097873       -2.2553843082        0.2835093089
 C          0.9451134151       -3.5124648549        0.2167647641
 C          0.5984396896       -4.1943208998        1.3765704425
 C         -0.0868800525       -5.3931211446        1.2901991017
 C         -0.4322183279       -5.9100072987        0.0523080301
 C         -0.0869348832       -5.2298429370       -1.1033803002
 C          0.6022438099       -4.0330235235       -1.0241911337
 C          2.9859120060       -2.2284486584        0.4623906175
 C          3.6603507500       -3.4358841158        0.6924435693
 C          5.0104490290       -3.4486179684        0.9553286883
 C          5.7198054216       -2.2554111694        1.0119458483
 C          5.0700042768       -1.0719604351        0.7422768714
 C          3.7084971417       -1.0133732496        0.4204114833
 B          2.9427139547        0.2716264045        0.0368144620
 C          3.4588732765        1.6706593260       -0.3636957218
 C          4.7835622935        1.9672719669       -0.7069578423
 C          5.2090420864        3.2447170942       -0.9939333223
 C          4.3016080561        4.2940757421       -0.9212149844
 C          2.9796376643        4.0440852777       -0.6346182254
 C          2.5297439389        2.7363342457       -0.4034450020
 N          1.1762420880        2.5184048256       -0.2138781819
 C          0.2817816129        3.6273014474       -0.2404178503
 C         -0.0521181328        4.2321972758       -1.4464088624
 C         -0.9524999478        5.2819835396       -1.4648765361
 C         -1.5298200962        5.7240484824       -0.2857880329
 C         -1.2003428683        5.1191683759        0.9155276093
 C         -0.2934803835        4.0746232280        0.9420063121
 C         -3.0662446977        1.3229841135        1.8328919275
 C         -3.8202420070        2.2945744769        2.4596821681
 H         -5.6404306380        3.4256422051        2.4401243378
 H         -6.4740818460        2.3521821651        0.3784144071
 H         -5.1280980035        0.6411499014       -0.7594844421
 H         -1.8535385386       -1.4125566757       -2.1731956063
 H         -2.8446546823       -3.3545283577       -3.3028386748
 H         -4.9084175545       -4.3872769199       -2.4199406293
 H         -5.9614890001       -3.4601565421       -0.3871583928
 H         -4.9560043021       -1.5372302004        0.7624026688
 H         -1.4244811335        1.9807907094       -0.2790051194
 H         -1.0364707332       -2.2101066079        0.3308043449
 H          0.8676743121       -3.7782041045        2.3363914384
 H         -0.3555642272       -5.9225402854        2.1921590563
 H         -0.9705244794       -6.8435368247       -0.0111423644
 H         -0.3542231296       -5.6319324279       -2.0689569764
 H          0.8743143430       -3.4901662791       -1.9173047123
 H          3.1170869875       -4.3687681303        0.6754990262
 H          5.5112139539       -4.3890172927        1.1350232200
 H          6.7717358020       -2.2606762521        1.2572389830
 H          5.6238235328       -0.1481282435        0.8013861133
 H          5.4908297105        1.1553430276       -0.7708369727
 H          6.2384378675        3.4340457788       -1.2606993690
 H          4.6254189161        5.3082335991       -1.1057123908
 H          2.2842958971        4.8690979915       -0.5995688062
 H          0.3972658549        3.8722146904       -2.3604226672
 H         -1.2092901468        5.7503267319       -2.4033340530
 H         -2.2382935258        6.5382874796       -0.3043315275
 H         -1.6516263832        5.4603347813        1.8349938710
 H         -0.0336540744        3.5921015798        1.8724586824
 H         -2.1130815819        1.0245445469        2.2433548346
 H         -3.4487411501        2.7547889717        3.3636884064
  76
  -114.810487487200       0.192664589143990      !
 C         -5.0717857328        2.3957414530        2.2947989746
 C         -5.5808926559        1.8602920365        1.1229510267
 C         -4.8203365086        1.0002016571        0.3554297350
 C         -3.5315280271        0.6482814058        0.7589265134
 N         -2.7591696791       -0.2280552863       -0.0015271179
 C         -3.3339463602       -1.2897131071       -0.7035602979
 C         -2.7831404155       -1.6962860981       -1.9199887488
 C         -3.3275008799       -2.7586648446       -2.6130483704
 C         -4.4325105852       -3.4291166950       -2.1145872252
 C         -4.9857343482       -3.0286713010       -0.9094585432
 C         -4.4426353055       -1.9726423083       -0.2037974617
 C         -1.3607407628       -0.0975671286       -0.0075938459
 C         -0.7834363148        1.1579819727       -0.1442143947
 C          0.6041390132        1.2833758852       -0.1397340836
 C          1.4278546359        0.1466991416        0.0050796819
 C          0.8136347922       -1.1174534618        0.1246474164
 C         -0.5732361017       -1.2337711267        0.1223539854
 N          1.5968855765       -2.2443597517        0.2554881775
 C          0.9213899950       -3.4994083691        0.2142994138
 C          0.5578836946       -4.1441851659        1.3903364558
 C         -0.1329332858       -5.3412806965        1.3330512416
 C         -0.4669402067       -5.8938136719        0.1074175725
 C         -0.1053594548       -5.2505737246       -1.0642820062
 C          0.5891786553       -4.0549796640       -1.0140721540
 C          2.9596181396       -2.2178694152        0.4889839197
 C          3.6234538476       -3.4242204183        0.7530577601
 C          4.9592750142       -3.4345592052        1.0808727209
 C          5.6642680187       -2.2404430568        1.1666864729
 C          5.0285975317       -1.0591953768        0.8567445061
 C          3.6837746253       -1.0033709353        0.4706607004
 B          2.9357916810        0.2796479463        0.0472486868
 C          3.4703475402        1.6742777639       -0.3429453584
 C          4.8074575788        1.9665726777       -0.6387228586
 C          5.2405021613        3.2370503964       -0.9447110170
 C          4.3253277345        4.2822005956       -0.9575986600
 C          2.9934056655        4.0353341205       -0.7185724570
 C          2.5424457442        2.7365390477       -0.4427861533
 N          1.1850506660        2.5253718450       -0.2802820256
 C          0.3046004258        3.6460243852       -0.3449491298
 C         -0.1614629168        4.0981343565       -1.5735158330
 C         -1.0366177625        5.1680292799       -1.6257588482
 C         -1.4502506577        5.7852736671       -0.4565359483
 C         -0.9859034101        5.3339389775        0.7674799211
 C         -0.1086645176        4.2652652045        0.8266723940
 C         -3.0235874307        1.1939827675        1.9392574020
 C         -3.7880092284        2.0615702362        2.6934345339
 H         -5.6704182969        3.0664537012        2.8921185230
 H         -6.5779897926        2.1205611777        0.7988505630
 H         -5.2179482045        0.5957843277       -0.5637656346
 H         -1.9264594887       -1.1694340420       -2.3135121660
 H         -2.8916692744       -3.0588161632       -3.5547954541
 H         -4.8596779632       -4.2560355749       -2.6611905399
 H         -5.8437092193       -3.5491599184       -0.5095731797
 H         -4.8681227676       -1.6741553993        0.7430385356
 H         -1.4260368816        2.0165214895       -0.2573183456
 H         -1.0565531027       -2.1907322633        0.2371228802
 H          0.8181059080       -3.6995869228        2.3398042926
 H         -0.4158742724       -5.8406548438        2.2476820687
 H         -1.0107230166       -6.8254289756        0.0662704796
 H         -0.3658545354       -5.6794153692       -2.0201666986
 H          0.8725682967       -3.5406854788       -1.9203831537
 H          3.0822100870       -4.3575928301        0.7131983222
 H          5.4513079563       -4.3736233415        1.2893134756
 H          6.7022666337       -2.2435570743        1.4654868253
 H          5.5785690439       -0.1346119763        0.9367114217
 H          5.5195644428        1.1564519264       -0.6493563196
 H          6.2805760218        3.4235943504       -1.1687843221
 H          4.6520367471        5.2893077403       -1.1730002405
 H          2.2902083629        4.8537483026       -0.7575110086
 H          0.1663022267        3.6055028663       -2.4772325121
 H         -1.3996015928        5.5174322643       -2.5808064321
 H         -2.1369093691        6.6171322564       -0.5001142352
 H         -1.3085747700        5.8136319763        1.6792635427
 H          0.2596821009        3.9025873013        1.7748030923
 H         -2.0291354061        0.9241294117        2.2622303294
 H         -3.3818961349        2.4698038454        3.6074796892
  76
  -114.810371887600       0.170481007328393      !
 C         -5.0467852421        2.4630396793        2.2454922760
 C         -5.5457450743        1.9309476724        1.0678884999
 C         -4.7943683209        1.0410453886        0.3255024980
 C         -3.5252297120        0.6573801484        0.7601571397
 N         -2.7561604906       -0.2423890464        0.0229025704
 C         -3.3390624120       -1.2926379859       -0.6880244875
 C         -2.7774164731       -1.7142254905       -1.8943111433
 C         -3.3356904357       -2.7638207859       -2.5957963051
 C         -4.4655963407       -3.4060714468       -2.1165627163
 C         -5.0293113025       -2.9909630746       -0.9212679605
 C         -4.4725128383       -1.9481118290       -0.2069079850
 C         -1.3580943613       -0.1125847239        0.0174062409
 C         -0.7841050525        1.1443047187       -0.1207871962
 C          0.6025685675        1.2749313960       -0.1137441338
 C          1.4296021380        0.1402825344        0.0263824692
 C          0.8191767182       -1.1258476353        0.1465343829
 C         -0.5675956782       -1.2466161217        0.1483459640
 N          1.6067667358       -2.2505187626        0.2703294373
 C          0.9361896171       -3.5080531759        0.2212769698
 C          0.5689846249       -4.1594475485        1.3924436007
 C         -0.1172860338       -5.3587275102        1.3259055987
 C         -0.4426919540       -5.9067684376        0.0959573006
 C         -0.0767655881       -5.2572167056       -1.0708936493
 C          0.6131035137       -4.0593830009       -1.0114207011
 C          2.9718396392       -2.2211650328        0.4896361144
 C          3.6400270017       -3.4257750634        0.7502595822
 C          4.9805075549       -3.4339422565        1.0588584633
 C          5.6859895996       -2.2391699724        1.1291400389
 C          5.0444040302       -1.0592009402        0.8263798310
 C          3.6939565719       -1.0056424630        0.4602484491
 B          2.9376122989        0.2762913653        0.0488304893
 C          3.4639755516        1.6724346251       -0.3474211242
 C          4.7964292765        1.9672946734       -0.6614842002
 C          5.2242271957        3.2399036951       -0.9656650922
 C          4.3095491119        4.2856033476       -0.9515284872
 C          2.9816558570        4.0365784495       -0.6936645893
 C          2.5338838720        2.7343263732       -0.4288613691
 N          1.1783857293        2.5197176235       -0.2536467040
 C          0.2908916495        3.6337337916       -0.3280450392
 C         -0.1138095955        4.1208667476       -1.5650695975
 C         -0.9978864648        5.1824618299       -1.6311909834
 C         -1.4839760651        5.7551873743       -0.4672376923
 C         -1.0826389634        5.2677940511        0.7652279278
 C         -0.1948503338        4.2087594321        0.8384326046
 C         -3.0284504197        1.1973230023        1.9478633315
 C         -3.7833769905        2.0937380187        2.6772411618
 H         -5.6376087475        3.1582442565        2.8222124193
 H         -6.5269479170        2.2178039554        0.7188168585
 H         -5.1826943744        0.6398884530       -0.5990991326
 H         -1.9022893614       -1.2085085998       -2.2746611366
 H         -2.8903507162       -3.0759982928       -3.5291541882
 H         -4.9031186490       -4.2232739277       -2.6694910332
 H         -5.9066110103       -3.4897112968       -0.5359979502
 H         -4.9088461542       -1.6360923560        0.7306030665
 H         -1.4298040472        1.9996604107       -0.2394829384
 H         -1.0483185539       -2.2049218989        0.2628651799
 H          0.8229160193       -3.7182366238        2.3451865511
 H         -0.4029728003       -5.8637061675        2.2365919368
 H         -0.9829951692       -6.8400612681        0.0474867236
 H         -0.3308219873       -5.6826357170       -2.0300441046
 H          0.8992331307       -3.5394575023       -1.9136648418
 H          3.0989055028       -4.3596749364        0.7227720861
 H          5.4760741181       -4.3719781540        1.2635959866
 H          6.7288449779       -2.2406154101        1.4105785929
 H          5.5949078207       -0.1339753787        0.8948115940
 H          5.5085357676        1.1574907226       -0.6880761469
 H          6.2602415114        3.4285667962       -1.2060817393
 H          4.6337105349        5.2951962131       -1.1590066522
 H          2.2792996664        4.8564188022       -0.7075891025
 H          0.2696941812        3.6618409489       -2.4645808879
 H         -1.3109447930        5.5600247819       -2.5931635422
 H         -2.1772575690        6.5808883766       -0.5214091170
 H         -1.4630356802        5.7119848296        1.6726880179
 H          0.1223852623        3.8172458380        1.7935036643
 H         -2.0490031382        0.9020794494        2.2938202413
 H         -3.3860234997        2.4989811054        3.5964670114
  76
  -114.810129332100       0.131887978912665      !
 C         -4.9378700128        2.4368210192        2.3669924566
 C         -5.4838482231        1.9382783540        1.1955777385
 C         -4.7712482450        1.0547152818        0.4083744684
 C         -3.4943610767        0.6437038135        0.7914982407
 N         -2.7589577216       -0.2465420446        0.0082335732
 C         -3.3666740067       -1.2909824093       -0.6875163475
 C         -2.8258153369       -1.7298165443       -1.8975410456
 C         -3.4103177105       -2.7731055465       -2.5868742621
 C         -4.5464010294       -3.3926047883       -2.0923900113
 C         -5.0888202507       -2.9614795073       -0.8929413279
 C         -4.5056000324       -1.9252352677       -0.1902829490
 C         -1.3597914879       -0.1224260938       -0.0241605059
 C         -0.7890440181        1.1348975859       -0.1709852126
 C          0.5970669561        1.2700727336       -0.1574999326
 C          1.4263376045        0.1390360946       -0.0012725453
 C          0.8193993317       -1.1294913563        0.1097067977
 C         -0.5672423168       -1.2547734016        0.1052763947
 N          1.6100116775       -2.2516072296        0.2429256025
 C          0.9448750158       -3.5104768783        0.1760352152
 C          0.6130880233       -4.1990071432        1.3366418319
 C         -0.0674862750       -5.4004464454        1.2530333894
 C         -0.4248836534       -5.9133881182        0.0168580170
 C         -0.0963343087       -5.2260340261       -1.1394932636
 C          0.5892997464       -4.0268173460       -1.0631413965
 C          2.9679101351       -2.2144077299        0.5041449835
 C          3.6398726362       -3.4160321821        0.7691788788
 C          4.9676024681       -3.4151728269        1.1287208835
 C          5.6568493443       -2.2144372165        1.2445145633
 C          5.0160625077       -1.0375758075        0.9288055741
 C          3.6804114025       -0.9927175271        0.5107104974
 B          2.9318310842        0.2852784465        0.0734877776
 C          3.4631737841        1.6866239492       -0.2975612198
 C          4.8053071584        1.9937331146       -0.5532231388
 C          5.2341267076        3.2694274481       -0.8430437480
 C          4.3090508178        4.3051888864       -0.8816625101
 C          2.9733646821        4.0438667491       -0.6828558068
 C          2.5281787028        2.7400816163       -0.4216446600
 N          1.1692161424        2.5162160296       -0.2940075536
 C          0.2794029442        3.6264956242       -0.3993935058
 C         -0.1479034369        4.0592010464       -1.6488365255
 C         -1.0318196821        5.1187951812       -1.7449550594
 C         -1.4934998221        5.7445023566       -0.5984758192
 C         -1.0686695884        5.3117383896        0.6464769499
 C         -0.1822586210        4.2539849745        0.7496001270
 C         -2.9506436755        1.1490670992        1.9739485050
 C         -3.6665747644        2.0398954230        2.7479127134
 H         -5.4983375576        3.1276611486        2.9782142952
 H         -6.4720382757        2.2465990042        0.8869123355
 H         -5.1965046883        0.6798781048       -0.5109956670
 H         -1.9464346263       -1.2417248019       -2.2908273118
 H         -2.9809942851       -3.0984566760       -3.5232725338
 H         -5.0046578788       -4.2044338191       -2.6363708047
 H         -5.9701412883       -3.4428111179       -0.4947788052
 H         -4.9238734422       -1.6045663906        0.7524479774
 H         -1.4369666511        1.9888010495       -0.2882602929
 H         -1.0456349401       -2.2137133341        0.2244643256
 H          0.8897865887       -3.7848915620        2.2952198288
 H         -0.3249061138       -5.9338904211        2.1558990350
 H         -0.9607664539       -6.8484445478       -0.0445673977
 H         -0.3751628741       -5.6236830451       -2.1036605312
 H          0.8463703934       -3.4783666037       -1.9572248625
 H          3.1118399909       -4.3554746594        0.7047776466
 H          5.4651589134       -4.3511112589        1.3380842780
 H          6.6872445874       -2.2090080768        1.5684615275
 H          5.5540805413       -0.1079682035        1.0290620796
 H          5.5259468740        1.1912124434       -0.5452995582
 H          6.2784692227        3.4672291102       -1.0352797743
 H          4.6313974675        5.3160173619       -1.0858335710
 H          2.2629635686        4.8548421658       -0.7414646229
 H          0.2173764618        3.5600882566       -2.5344428313
 H         -1.3629574666        5.4540498662       -2.7165131849
 H         -2.1858273743        6.5691530612       -0.6759730762
 H         -1.4291701777        5.7977972508        1.5405118783
 H          0.1540569879        3.9052480536        1.7146639312
 H         -1.9653272781        0.8312971232        2.2810262009
 H         -3.2324610903        2.4177415135        3.6621621679
  76
  -114.809865420200       9.975156117149209E-002 !
 C         -5.0877909504        2.8682438935       -1.5115689373
 C         -3.8786041504        2.5507481906       -2.1084419768
 C         -3.1093246866        1.5129075912       -1.6219937963
 C         -3.5338507795        0.7795493080       -0.5132686770
 N         -2.7437041445       -0.2528790863        0.0003180915
 C         -3.3385001174       -1.4141806794        0.5020902372
 C         -4.4701940238       -1.9527095816       -0.1098250339
 C         -5.0437370825       -3.1096522056        0.3805418807
 C         -4.4985876514       -3.7536930029        1.4788720890
 C         -3.3762821581       -3.2220863570        2.0927456862
 C         -2.8025129077       -2.0601505274        1.6167927100
 C         -1.3497604278       -0.1254448549        0.0059129583
 C         -0.7725307148        1.1228777949        0.2045523015
 C          0.6108624584        1.2645770066        0.1410076049
 C          1.4436255785        0.1325438730        0.0121509848
 C          0.8328664792       -1.1328669868       -0.1201436138
 C         -0.5528913359       -1.2470686338       -0.1887346986
 N          1.6216416146       -2.2597062469       -0.2171138352
 C          0.9512428623       -3.5056496957       -0.3963767229
 C          0.3585039006       -4.1386894784        0.6898809622
 C         -0.3238840136       -5.3272808076        0.5066045592
 C         -0.4109373283       -5.8905510600       -0.7560213459
 C          0.1860885978       -5.2639546233       -1.8370040175
 C          0.8643970139       -4.0702690973       -1.6615926887
 C          2.9926802702       -2.2653618648       -0.0337666140
 C          3.6559423751       -3.4996242908        0.0193133069
 C          5.0079148609       -3.5633132424        0.2639210956
 C          5.7292110039       -2.3973842098        0.4863680821
 C          5.0848518564       -1.1825648988        0.4171988686
 C          3.7206399936       -1.0634920173        0.1249088360
 B          2.9514501085        0.2722116398        0.0141440529
 C          3.4628679374        1.7263838089       -0.0953601591
 C          4.7832278428        2.0935938636       -0.3826910808
 C          5.1940407575        3.4059990751       -0.4512022839
 C          4.2703000897        4.4199126801       -0.2325829331
 C          2.9519501820        4.1093791391        0.0067643933
 C          2.5261246059        2.7744357223        0.0585048593
 N          1.1786915260        2.5174354288        0.2366268801
 C          0.2885059751        3.6203566858        0.3961144904
 C         -0.3939444212        4.1257345756       -0.7042583521
 C         -1.2852838798        5.1703614488       -0.5422169945
 C         -1.4931502225        5.7173679429        0.7134056836
 C         -0.8076402108        5.2190109106        1.8085615019
 C          0.0807763210        4.1688988664        1.6543258344
 C         -4.7536705091        1.1018193650        0.0812926313
 C         -5.5218892219        2.1347215442       -0.4197220384
 H         -5.6879395908        3.6790834924       -1.8954339122
 H         -3.5357195555        3.1100676201       -2.9667404545
 H         -2.1725935044        1.2595391850       -2.0957283488
 H         -4.8901301053       -1.4601865801       -0.9746666492
 H         -5.9176313341       -3.5172087405       -0.1063044307
 H         -4.9459966825       -4.6614506035        1.8543738122
 H         -2.9498617092       -3.7109760610        2.9565753982
 H         -1.9343706867       -1.6410289212        2.1033551354
 H         -1.4133200424        1.9710287250        0.3820997860
 H         -1.0268947477       -2.1979432061       -0.3694508647
 H          0.4319044507       -3.6878281311        1.6683970426
 H         -0.7898743046       -5.8137926598        1.3502013455
 H         -0.9450562283       -6.8179823529       -0.8971868272
 H          0.1198499004       -5.7023736734       -2.8215476520
 H          1.3299789657       -3.5696145160       -2.4977367694
 H          3.1007541462       -4.4159335869       -0.1148187146
 H          5.4997071797       -4.5245785864        0.3031893178
 H          6.7838759391       -2.4467972468        0.7143478807
 H          5.6472968967       -0.2854795861        0.6219183768
 H          5.5014432320        1.3148607997       -0.5844470508
 H          6.2226862633        3.6479465245       -0.6751367603
 H          4.5774282445        5.4551298906       -0.2713545872
 H          2.2376847924        4.9083972139        0.1380025670
 H         -0.2247884339        3.6883501054       -1.6770415912
 H         -1.8199941939        5.5566588141       -1.3968497399
 H         -2.1902063608        6.5321770982        0.8380490820
 H         -0.9682264927        5.6450124976        2.7876707747
 H          0.6165718614        3.7673305328        2.5017764872
 H         -5.0892168322        0.5400658337        0.9408361476
 H         -6.4626753588        2.3752297567        0.0535563005
  76
  -114.809487063200       6.684037277576693E-002 !
 C         -4.5877046516       -3.0133574558        2.5402969841
 C         -3.4827009939       -2.2969410133        2.9702822254
 C         -2.8777702620       -1.3768164712        2.1376746258
 C         -3.3638927793       -1.1677478980        0.8465685677
 N         -2.7393253424       -0.2572735352       -0.0116748474
 C         -3.5069141942        0.5280843746       -0.8780504019
 C         -3.0535905765        0.8173835010       -2.1655962666
 C         -3.8019330651        1.6180723485       -3.0049981246
 C         -5.0177234260        2.1326730919       -2.5852638290
 C         -5.4806150596        1.8365999536       -1.3138035749
 C         -4.7337746538        1.0453626386       -0.4628127023
 C         -1.3467128105       -0.1278962919       -0.0022661123
 C         -0.7669471946        1.1074415843       -0.2674331700
 C          0.6186959961        1.2308900900       -0.3051605519
 C          1.4482503135        0.1355526187        0.0122421526
 C          0.8345508557       -1.0956184381        0.3228948357
 C         -0.5495222518       -1.2334280422        0.2711344646
 N          1.6186454137       -2.1763590634        0.6681413792
 C          0.9347261343       -3.3302537760        1.1505023725
 C          0.6911952399       -4.4121319976        0.3132541343
 C         -0.0084526217       -5.5065944392        0.7891697442
 C         -0.4718967667       -5.5228586662        2.0944285005
 C         -0.2296990209       -4.4445051916        2.9285165590
 C          0.4738482672       -3.3492550947        2.4605247409
 C          2.9965852163       -2.2034363164        0.5517320892
 C          3.6740563097       -3.4000394063        0.8258517773
 C          5.0330852022       -3.4989062150        0.6380990521
 C          5.7500391902       -2.4102635904        0.1577305883
 C          5.0969386007       -1.2183380432       -0.0621347730
 C          3.7247502597       -1.0543518011        0.1633763920
 B          2.9550685921        0.2770440370        0.0159897393
 C          3.4651556383        1.7279769504       -0.1307369713
 C          4.7828805934        2.1435308214        0.0966411769
 C          5.2044222152        3.4354096903       -0.1243388944
 C          4.2988526378        4.3725720373       -0.6056757628
 C          2.9818905656        4.0237426620       -0.7947730109
 C          2.5378651240        2.7219703729       -0.5224274820
 N          1.1895377933        2.4396702927       -0.6438034485
 C          0.3059193667        3.4424768594       -1.1394277744
 C         -0.1320553727        3.3710729912       -2.4554930703
 C         -1.0260081404        4.3104016394       -2.9370808986
 C         -1.4820166644        5.3231606439       -2.1103517352
 C         -1.0417413004        5.3979288041       -0.7991418531
 C         -0.1515392995        4.4587894132       -0.3097253962
 C         -4.4787915873       -1.8894884772        0.4205750198
 C         -5.0842178374       -2.7996426865        1.2650330754
 H         -5.0596135446       -3.7306390607        3.1943564728
 H         -3.0938670404       -2.4485218978        3.9664730003
 H         -2.0233851515       -0.8118794427        2.4793239126
 H         -2.1109619540        0.4093732240       -2.4986107188
 H         -3.4372490909        1.8342211906       -3.9984445868
 H         -5.6007105043        2.7577530988       -3.2442876103
 H         -6.4266949933        2.2340934839       -0.9766929507
 H         -5.0912730607        0.8267371749        0.5328658495
 H         -1.4052361266        1.9580219695       -0.4436773097
 H         -1.0192347771       -2.1886127648        0.4416058940
 H          1.0510336866       -4.3849577220       -0.7048575716
 H         -0.1976224165       -6.3459819942        0.1368653465
 H         -1.0228178617       -6.3758815522        2.4605891644
 H         -0.5888139080       -4.4562791202        3.9465530907
 H          0.6663964839       -2.5006196922        3.1000981424
 H          3.1269913804       -4.2611565737        1.1790756133
 H          5.5354264422       -4.4319272541        0.8493217131
 H          6.8101229028       -2.4984008838       -0.0299587607
 H          5.6581620980       -0.3801206097       -0.4440332389
 H          5.4889251645        1.4241178261        0.4805418085
 H          6.2298118153        3.7182598342        0.0636576489
 H          4.6201249214        5.3824033912       -0.8165925571
 H          2.2847764808        4.7685273774       -1.1482419497
 H          0.2279521229        2.5736802191       -3.0886520552
 H         -1.3668658747        4.2513089541       -3.9597372803
 H         -2.1814188828        6.0540278488       -2.4870350638
 H         -1.3967985881        6.1868209951       -0.1529546376
 H          0.1934091809        4.5030507501        0.7129813569
 H         -4.8610151681       -1.7340361555       -0.5777523095
 H         -5.9448008242       -3.3538065665        0.9200131133
  76
  -114.809452198400       6.441931621336781E-002 !
 C         -5.1106154067        2.8988786648       -1.4975476494
 C         -3.8743026081        2.6494402463       -2.0701917724
 C         -3.0890150570        1.6082093005       -1.6167553660
 C         -3.5254100527        0.8034620202       -0.5639787814
 N         -2.7342180421       -0.2433773524       -0.0796357699
 C         -3.3430810993       -1.4453789683        0.3028913250
 C         -4.4023530011       -1.9653887964       -0.4400060883
 C         -4.9880969893       -3.1619445721       -0.0750655245
 C         -4.5262549472       -3.8616315961        1.0274709558
 C         -3.4773785476       -3.3473542769        1.7720996361
 C         -2.8919260644       -2.1473531768        1.4205688660
 C         -1.3434002461       -0.1191800502       -0.0307765213
 C         -0.7636283484        1.1277308727        0.1785457565
 C          0.6210006301        1.2676589843        0.1363031618
 C          1.4532656376        0.1400193115       -0.0209108763
 C          0.8417962216       -1.1243835270       -0.1374982710
 C         -0.5427309318       -1.2439192510       -0.1951284592
 N          1.6275308182       -2.2562048505       -0.2131204179
 C          0.9577798540       -3.4962437071       -0.0058162249
 C          0.5799049703       -3.8424907684        1.2856641764
 C         -0.1203258773       -5.0133226234        1.5112273480
 C         -0.4448960871       -5.8428489420        0.4511442161
 C         -0.0634321868       -5.5019767388       -0.8358843558
 C          0.6348030224       -4.3302016222       -1.0689196946
 C          2.9915839666       -2.2336425310       -0.4377293822
 C          3.6664874749       -3.4466057012       -0.6329156115
 C          5.0016083140       -3.4631496669       -0.9637957369
 C          5.6941052621       -2.2691527684       -1.1216642973
 C          5.0497901150       -1.0785835863       -0.8699508694
 C          3.7071700942       -1.0135734693       -0.4781693243
 B          2.9587945862        0.2788884504       -0.0806265204
 C          3.4877144053        1.6874027297        0.2679596871
 C          4.8305505833        2.0024148796        0.5095652007
 C          5.2614605979        3.2869959600        0.7533897558
 C          4.3377235398        4.3246083975        0.7524429553
 C          3.0010510929        4.0570350686        0.5690369446
 C          2.5523016267        2.7442680276        0.3646180711
 N          1.1919508865        2.5171769152        0.2577784984
 C          0.2960093192        3.6242934023        0.3231416267
 C         -0.2617464901        4.1274284816       -0.8450287967
 C         -1.1708381742        5.1682253707       -0.7818564221
 C         -1.5211284785        5.7119401349        0.4426045183
 C         -0.9593367943        5.2155112760        1.6072986510
 C         -0.0543586251        4.1707038515        1.5516329295
 C         -4.7728897596        1.0578249095        0.0064232787
 C         -5.5566429804        2.0938128895       -0.4623162753
 H         -5.7231024530        3.7118326606       -1.8565846443
 H         -3.5222154262        3.2641123988       -2.8856578086
 H         -2.1329486315        1.4076499761       -2.0764689199
 H         -4.7552961119       -1.4269736008       -1.3075506091
 H         -5.8037308164       -3.5558843433       -0.6634944244
 H         -4.9816209229       -4.7999375811        1.3052225351
 H         -3.1174064349       -3.8810403923        2.6391747788
 H         -2.0788949458       -1.7441705355        2.0057211361
 H         -1.4025882490        1.9769999857        0.3581029518
 H         -1.0067376530       -2.1999901885       -0.3752408442
 H          0.8338913866       -3.1830777627        2.1026619843
 H         -0.4122904819       -5.2783009993        2.5163979668
 H         -0.9956615414       -6.7543526825        0.6273109924
 H         -0.3163387092       -6.1475072638       -1.6637031826
 H          0.9274866251       -4.0509226674       -2.0705089591
 H          3.1347680870       -4.3811682243       -0.5354604729
 H          5.5026252930       -4.4079318652       -1.1183884726
 H          6.7304726174       -2.2790138447       -1.4261417460
 H          5.5922688063       -0.1551298779       -0.9993257529
 H          5.5507201586        1.1996415115        0.5242862454
 H          6.3066246118        3.4906700530        0.9349750335
 H          4.6622046755        5.3429326091        0.9112765898
 H          2.2928210158        4.8716905670        0.5914027267
 H          0.0165533404        3.6918819423       -1.7932254124
 H         -1.6076420039        5.5548644454       -1.6902259904
 H         -2.2329540256        6.5220855279        0.4899046535
 H         -1.2307720509        5.6384576857        2.5630382166
 H          0.3854010240        3.7702324164        2.4533302550
 H         -5.1186348176        0.4376693444        0.8205873830
 H         -6.5194365816        2.2792611211       -0.0091493806
