  76
       -115.28941183
 C         -4.6104246354       -3.6408483373        1.4382885524
 C         -3.4715176661       -3.1529400803        2.0579734387
 C         -2.8605050270       -2.0046071559        1.5955874226
 C         -3.3750754601       -1.3290624341        0.4884125395
 N         -2.7454610539       -0.1807445349       -0.0020785510
 C         -3.5110006872        0.8817625768       -0.4936210219
 C         -3.0842902649        1.6120081027       -1.6034094378
 C         -3.8293639366        2.6785564218       -2.0649877049
 C         -5.0159398566        3.0284989607       -1.4415177287
 C         -5.4528711487        2.2980100955       -0.3488072414
 C         -4.7086746813        1.2360587569        0.1270535767
 C         -1.3496789654       -0.0914429164        0.0016952992
 C         -0.7380236922        1.1436585217        0.1830889890
 C          0.6493047159        1.2447860181        0.1411002008
 C          1.4516466398        0.0929091788        0.0065780738
 C          0.8074764080       -1.1542424435       -0.1297004228
 C         -0.5812130729       -1.2361032935       -0.1762763457
 N          1.5656366490       -2.3017925534       -0.2312954284
 C          0.8585299939       -3.5382976163       -0.1770172199
 C          0.5573390135       -4.2348399410       -1.3410039803
 C         -0.1637487777       -5.4133608318       -1.2704934049
 C         -0.5913025338       -5.8957334967       -0.0444184401
 C         -0.2916439994       -5.2012919208        1.1153938352
 C          0.4335835732       -4.0250077722        1.0523980184
 C          2.9382583882       -2.3118986642       -0.4010300086
 C          3.5842036618       -3.5392093729       -0.6070173100
 C          4.9336554688       -3.5897183678       -0.8685778657
 C          5.6717239070       -2.4153331603       -0.9459988635
 C          5.0514731150       -1.2126647691       -0.6921379509
 C          3.6920089580       -1.1150645032       -0.3712345227
 B          2.9617653656        0.1932824221        0.0052229001
 C          3.5140036448        1.5872088227        0.3779505678
 C          4.8501788867        1.8648050896        0.6915760368
 C          5.3067889328        3.1395505764        0.9405976267
 C          4.4188926738        4.2055509243        0.8678089153
 C          3.0866809359        3.9760723990        0.6140761938
 C          2.6087057172        2.6738157388        0.4100932194
 N          1.2491638339        2.4821656252        0.2447809308
 C          0.3849158221        3.6140455594        0.1817793817
 C         -0.0912571668        4.0366837078       -1.0525562809
 C         -0.9674843068        5.1045610714       -1.1252242384
 C         -1.3677174514        5.7545154210        0.0299720472
 C         -0.8892716282        5.3367353038        1.2609283408
 C         -0.0165698989        4.2662510475        1.3410907686
 C         -4.5239298122       -1.8231866557       -0.1291263255
 C         -5.1347901021       -2.9665551506        0.3479368024
 H         -5.0869364307       -4.5378484208        1.8034078178
 H         -3.0604332909       -3.6653913220        2.9152762027
 H         -1.9792987353       -1.6204668095        2.0872821085
 H         -2.1648117644        1.3350546592       -2.0971460162
 H         -3.4854548998        3.2351241950       -2.9244116309
 H         -5.5964787749        3.8624635421       -1.8053706306
 H         -6.3760230676        2.5637481149        0.1450406705
 H         -5.0454226804        0.6762281593        0.9873840190
 H         -1.3532492756        2.0123902170        0.3526899100
 H         -1.0765171300       -2.1780639125       -0.3478930766
 H          0.8896500404       -3.8450674902       -2.2920141867
 H         -0.3977295054       -5.9527853643       -2.1761047447
 H         -1.1590603265       -6.8124195638        0.0063109610
 H         -0.6227389816       -5.5767168787        2.0719149908
 H          0.6708859560       -3.4723955420        1.9494032023
 H          3.0196815156       -4.4587839297       -0.5714185449
 H          5.4113691297       -4.5452498647       -1.0305630810
 H          6.7228456557       -2.4499350544       -1.1924105723
 H          5.6286139547       -0.3042196018       -0.7632895293
 H          5.5430439533        1.0410160537        0.7604477504
 H          6.3455379797        3.3138150611        1.1801869487
 H          4.7665315083        5.2160904873        1.0272396836
 H          2.4043934492        4.8121913152        0.5824288613
 H          0.2253247806        3.5184406444       -1.9456021520
 H         -1.3381397594        5.4296268675       -2.0856662092
 H         -2.0533787668        6.5861993526       -0.0282607840
 H         -1.2008218513        5.8422121362        2.1628175327
 H          0.3576971054        3.9272807150        2.2960258167
 H         -4.9283441836       -1.3064834641       -0.9872548557
 H         -6.0219352478       -3.3393144036       -0.1427397581
  76
       -115.28900829
 C         -4.9533679527        3.0251821361       -1.6461164626
 C         -3.7385271030        2.6710863263       -2.2100061073
 C         -3.0153008667        1.6095689978       -1.7043771842
 C         -3.4926492689        0.8886427095       -0.6090635511
 N         -2.7491558215       -0.1681333585       -0.0757219169
 C         -3.3930642024       -1.3109939242        0.4074246967
 C         -4.5234954793       -1.8138028703       -0.2363866631
 C         -5.1457201382       -2.9529516569        0.2359523065
 C         -4.6511842505       -3.6145017555        1.3477487898
 C         -3.5304006421       -3.1183239832        1.9932468618
 C         -2.9081938867       -1.9742044903        1.5353313677
 C         -1.3526332929       -0.0837590970       -0.0314988196
 C         -0.7429218582        1.1459841412        0.1851684433
 C          0.6454063873        1.2450050594        0.1600127828
 C          1.4461383907        0.0879431256        0.0521545502
 C          0.8005691668       -1.1579065239       -0.0991471693
 C         -0.5856285492       -1.2292495342       -0.2060936154
 N          1.5566309813       -2.3084493908       -0.1763339570
 C          0.8533688592       -3.5329585668       -0.3761949412
 C          0.2116619343       -4.1484053525        0.6922020254
 C         -0.5017015184       -5.3152162710        0.4880998008
 C         -0.5711930352       -5.8743817928       -0.7774359282
 C          0.0744531340       -5.2655123207       -1.8404531328
 C          0.7841145362       -4.0934766323       -1.6443164051
 C          2.9212632464       -2.3565572328        0.0447081230
 C          3.5444697135       -3.6107376837        0.1138668525
 C          4.8865739367       -3.7163190234        0.3955185701
 C          5.6370333401       -2.5733954004        0.6398085058
 C          5.0325586335       -1.3392171674        0.5550531651
 C          3.6812474022       -1.1778572806        0.2254977618
 B          2.9569205577        0.1810358922        0.0959364126
 C          3.5157206001        1.6188415150        0.0031270955
 C          4.8541917095        1.9454141455       -0.2470687657
 C          5.3069744195        3.2445859482       -0.3019223853
 C          4.4092270025        4.2863088117       -0.1070503983
 C          3.0758342036        4.0163674699        0.0953354157
 C          2.6078201067        2.6951465326        0.1329713454
 N          1.2487075978        2.4796658102        0.2734482344
 C          0.3888602482        3.6093729079        0.4102923819
 C         -0.2470745129        4.1365628422       -0.7075732183
 C         -1.1099411051        5.2080365771       -0.5683108189
 C         -1.3354247090        5.7600488436        0.6820700962
 C         -0.6960727069        5.2397868119        1.7948173316
 C          0.1634890959        4.1629135529        1.6632674484
 C         -4.7179030810        1.2478406654       -0.0477693002
 C         -5.4398196752        2.3044024922       -0.5679386371
 H         -5.5174318086        3.8544964113       -2.0449414418
 H         -3.3550219609        3.2203463706       -3.0575446352
 H         -2.0741047541        1.3278611505       -2.1525689396
 H         -4.9040355882       -1.3077733750       -1.1116007023
 H         -6.0179885500       -3.3329161211       -0.2755040913
 H         -5.1365367477       -4.5083698476        1.7091807115
 H         -3.1432418624       -3.6209209893        2.8676344429
 H         -2.0413084695       -1.5825027900        2.0463658889
 H         -1.3619333186        2.0133334945        0.3464879491
 H         -1.0835331716       -2.1648865489       -0.4014762732
 H          0.2718889023       -3.7009150093        1.6731619735
 H         -1.0055584045       -5.7878929832        1.3176787516
 H         -1.1295308298       -6.7847685850       -0.9348979597
 H          0.0219315161       -5.7007816918       -2.8272190884
 H          1.2877934794       -3.6066581277       -2.4664318185
 H          2.9652291732       -4.5093643365       -0.0371253003
 H          5.3472485646       -4.6923310572        0.4466276389
 H          6.6829829954       -2.6555224367        0.8966723428
 H          5.6165098198       -0.4600935430        0.7767719595
 H          5.5533695087        1.1450835842       -0.4303319624
 H          6.3483724842        3.4548953171       -0.4970039959
 H          4.7490538155        5.3115954935       -0.1355209929
 H          2.3831737449        4.8369158604        0.2082522733
 H         -0.0646954797        3.6950564236       -1.6760958684
 H         -1.6087114011        5.6114217556       -1.4366693240
 H         -2.0102221991        6.5958560147        0.7888966678
 H         -0.8704145907        5.6696456784        2.7698796561
 H          0.6630714184        3.7442377556        2.5244495873
 H         -5.0941855708        0.6959202046        0.8012116856
 H         -6.3854508645        2.5733817550       -0.1203373060
  76
       -115.28890076
 C         -4.9840665497        3.0853617717       -1.5505352870
 C         -3.7443926411        2.8065450516       -2.1019697702
 C         -3.0020198832        1.7332200972       -1.6510826162
 C         -3.4856730912        0.9248420969       -0.6220044377
 N         -2.7382296788       -0.1548054962       -0.1402004915
 C         -3.3925669286       -1.3431956583        0.2082541989
 C         -4.4517457164       -1.8164049327       -0.5654234007
 C         -5.0824375215       -2.9997873144       -0.2339760522
 C         -4.6662442800       -3.7326234341        0.8651968647
 C         -3.6176705162       -3.2648416488        1.6402891156
 C         -2.9874449245       -2.0782368306        1.3223019436
 C         -1.3455351974       -0.0758055788       -0.0605297180
 C         -0.7313605657        1.1482432290        0.1828468568
 C          0.6575695977        1.2447226673        0.1716022744
 C          1.4570696237        0.0940197041        0.0114931651
 C          0.8087102733       -1.1480904184       -0.1401465456
 C         -0.5773660497       -1.2224816962       -0.2283725687
 N          1.5598576960       -2.3028898618       -0.2197258675
 C          0.8471816534       -3.5243496928       -0.0483593373
 C          0.4313924796       -3.8804830344        1.2287023246
 C         -0.3099492891       -5.0321238132        1.4189261810
 C         -0.6379933308       -5.8325990778        0.3377867643
 C         -0.2188809428       -5.4820276683       -0.9348465702
 C          0.5206541943       -4.3292525984       -1.1325640948
 C          2.9283865071       -2.3199176745       -0.4157824501
 C          3.5687552091       -3.5502274872       -0.6186068871
 C          4.9093872672       -3.6035928610       -0.9221869210
 C          5.6422993554       -2.4297166151       -1.0444878997
 C          5.0305978370       -1.2237291419       -0.7849265337
 C          3.6827104559       -1.1227347404       -0.4197589647
 B          2.9671487395        0.1858914387       -0.0147491511
 C          3.5326511350        1.5706691355        0.3696708867
 C          4.8793310345        1.8385819733        0.6444268498
 C          5.3452072872        3.1044239586        0.9199006091
 C          4.4548095730        4.1707824088        0.9184222703
 C          3.1145522029        3.9490832892        0.7028157690
 C          2.6291296208        2.6549660948        0.4658641553
 N          1.2648671756        2.4731637902        0.3270293374
 C          0.4030312605        3.6069590268        0.3936458762
 C         -0.1138057939        4.1475505926       -0.7766099963
 C         -0.9908232742        5.2155258141       -0.7136348502
 C         -1.3496229710        5.7490431704        0.5128461504
 C         -0.8284684325        5.2150845542        1.6798294726
 C          0.0441536559        4.1431036751        1.6242021478
 C         -4.7363035260        1.2089740210       -0.0729532797
 C         -5.4769847069        2.2772729684       -0.5391996982
 H         -5.5629419155        3.9234392300       -1.9075669800
 H         -3.3559829955        3.4235875089       -2.8989444548
 H         -2.0432388343        1.5102362753       -2.0945245173
 H         -4.7691591582       -1.2522311229       -1.4303221677
 H         -5.8974496159       -3.3574139181       -0.8459843461
 H         -5.1566819230       -4.6605807796        1.1167685570
 H         -3.2930743744       -3.8245052007        2.5049475153
 H         -2.1746735442       -1.7112343619        1.9311458420
 H         -1.3469273214        2.0142204833        0.3643118163
 H         -1.0673226848       -2.1600670636       -0.4349894137
 H          0.6886860816       -3.2435949335        2.0623650736
 H         -0.6312825594       -5.3048678072        2.4129988574
 H         -1.2207718936       -6.7289928389        0.4863255118
 H         -0.4744298744       -6.1048912172       -1.7790569236
 H          0.8430803357       -4.0423016713       -2.1227873169
 H          3.0059464967       -4.4689217708       -0.5487693071
 H          5.3835767889       -4.5610571730       -1.0832357278
 H          6.6840450875       -2.4673449545       -1.3277033486
 H          5.6044829687       -0.3159316701       -0.8866484502
 H          5.5734073103        1.0131536813        0.6596670937
 H          6.3921931948        3.2715773898        1.1265510508
 H          4.8077497384        5.1753871444        1.1020057551
 H          2.4319971525        4.7853699664        0.7251058621
 H          0.1706219606        3.7196859910       -1.7264842726
 H         -1.3959511827        5.6313925311       -1.6237715892
 H         -2.0364397091        6.5805096505        0.5599070759
 H         -1.1065924764        5.6300093976        2.6371608008
 H          0.4519409156        3.7134339391        2.5274836403
 H         -5.1185206686        0.5862721495        0.7227528180
 H         -6.4428253377        2.4854819923       -0.1027095176
  76
       -115.28881416
 C         -4.9064059016        1.8752551287        2.9709728723
 C         -5.4247238134        1.7425931003        1.6933190752
 C         -4.7217431156        1.0635474074        0.7171956231
 C         -3.4834866298        0.4920911208        1.0105917027
 N         -2.7560284109       -0.1882188920        0.0318739710
 C         -3.3925109735       -0.9532869329       -0.9468584948
 C         -2.8564768613       -1.0347408853       -2.2334510600
 C         -3.4692244793       -1.8082697928       -3.1983261022
 C         -4.6320306822       -2.5029936635       -2.9076379654
 C         -5.1739291650       -2.4199727164       -1.6357359335
 C         -4.5608535012       -1.6591105249       -0.6592156300
 C         -1.3560712533       -0.1003080593        0.0343827470
 C         -0.7461728898        1.1137156308        0.3234198036
 C          0.6429385128        1.2020940501        0.3533999166
 C          1.4392913190        0.0811876221        0.0382020261
 C          0.7937915471       -1.1316792468       -0.2815474609
 C         -0.5949571223       -1.2251226046       -0.2557689108
 N          1.5488555249       -2.2348768287       -0.6178710565
 C          0.8372975630       -3.3672691910       -1.1126844448
 C          0.5009954698       -4.4183938250       -0.2687072795
 C         -0.2246392584       -5.4890688178       -0.7599856990
 C         -0.6204277624       -5.5114566507       -2.0872589832
 C         -0.2854555480       -4.4633818944       -2.9279685963
 C          0.4437728971       -3.3920057028       -2.4442395042
 C          2.9243265493       -2.3023560397       -0.4928792079
 C          3.5656785704       -3.5236037661       -0.7437057205
 C          4.9214054490       -3.6582564389       -0.5542079944
 C          5.6700548077       -2.5824047002       -0.0935545087
 C          5.0514544663       -1.3695107431        0.1107501458
 C          3.6841768166       -1.1704224953       -0.1165099774
 B          2.9498219303        0.1808839075        0.0230915338
 C          3.4994591374        1.6190182634        0.1405244227
 C          4.8230300391        1.9940633015       -0.1204549275
 C          5.2812905270        3.2793855217        0.0617486648
 C          4.4104193572        4.2476115318        0.5454839717
 C          3.0895010484        3.9365918371        0.7706066544
 C          2.6043350846        2.6439156993        0.5263515105
 N          1.2502686050        2.3987829186        0.6740334684
 C          0.3915364181        3.4583994892        1.0865954247
 C          0.0441275464        4.4682797493        0.1970723722
 C         -0.8221987807        5.4700484549        0.5958427610
 C         -1.3522680634        5.4626013405        1.8756633585
 C         -1.0094061746        4.4545302504        2.7610067165
 C         -0.1362155301        3.4545868629        2.3713574201
 C         -2.9704019900        0.6233306480        2.3021310236
 C         -3.6751942794        1.3138721704        3.2674216622
 H         -5.4579181314        2.4099812378        3.7291834478
 H         -6.3821980585        2.1799618638        1.4508646956
 H         -5.1238235904        0.9759541423       -0.2814680690
 H         -1.9572302145       -0.4846748689       -2.4673955456
 H         -3.0410560658       -1.8601874572       -4.1887163553
 H         -5.1118258205       -3.1027033100       -3.6659709848
 H         -6.0780782920       -2.9608256735       -1.3972836588
 H         -4.9799598873       -1.6105963978        0.3350998728
 H         -1.3672034173        1.9738567289        0.5149433176
 H         -1.0974845250       -2.1572824457       -0.4581860761
 H          0.8098395230       -4.3867861091        0.7659487582
 H         -0.4852311574       -6.3057384179       -0.1033654141
 H         -1.1900187947       -6.3465106234       -2.4661095605
 H         -0.5920626497       -4.4798709295       -3.9629456395
 H          0.7084241970       -2.5661245394       -3.0878606820
 H          2.9924377056       -4.3749339922       -1.0788578870
 H          5.3964374514       -4.6091157521       -0.7481607902
 H          6.7276364482       -2.6977561923        0.0934456924
 H          5.6361131298       -0.5422067216        0.4814493393
 H          5.5017927590        1.2475867196       -0.5020178026
 H          6.3084931533        3.5325200889       -0.1560650263
 H          4.7614622233        5.2524840242        0.7309808854
 H          2.4222789038        4.7055330005        1.1296591713
 H          0.4563253423        4.4579134908       -0.8013965473
 H         -1.0895800347        6.2536387651       -0.0973257278
 H         -2.0344345411        6.2413381250        2.1814108414
 H         -1.4239564669        4.4454301583        3.7577688631
 H          0.1335224198        2.6606611268        3.0517997977
 H         -2.0163709942        0.1767692833        2.5397729915
 H         -3.2642971043        1.4048658800        4.2623695016
  76
       -115.28813741
 C         -4.8945722930        1.5088159472        3.2164386842
 C         -5.4455670700        1.4776687551        1.9459001844
 C         -4.7460775544        0.9260995876        0.8903832745
 C         -3.4776677590        0.3816642187        1.0942538284
 N         -2.7606707061       -0.1813123995        0.0389960757
 C         -3.3984335743       -0.8681755877       -0.9952632008
 C         -2.8871203926       -0.8060286991       -2.2925705179
 C         -3.4999757953       -1.4963627644       -3.3188495576
 C         -4.6353485222       -2.2520203459       -3.0764686819
 C         -5.1492681731       -2.3159030856       -1.7917022984
 C         -4.5377213451       -1.6367008396       -0.7560536075
 C         -1.3599107884       -0.0853571522        0.0274844611
 C         -0.7497148830        1.1177076051        0.3570726442
 C          0.6400653178        1.2098322811        0.3579090830
 C          1.4335591965        0.0928367697        0.0206606246
 C          0.7861226728       -1.1111746247       -0.3276550254
 C         -0.6031706864       -1.1975837700       -0.3165460011
 N          1.5400479204       -2.2119659911       -0.6745894349
 C          0.8277392676       -3.3421182170       -1.1734330445
 C          0.4747123774       -4.3854128555       -0.3262649830
 C         -0.2519016775       -5.4547741757       -0.8183681543
 C         -0.6315960572       -5.4838367085       -2.1502834047
 C         -0.2797774728       -4.4438728518       -2.9941196196
 C          0.4501732172       -3.3732085554       -2.5092361821
 C          2.9112993808       -2.2942627246       -0.5155995873
 C          3.5474283231       -3.5190613307       -0.7619582941
 C          4.8955601999       -3.6697497102       -0.5338759821
 C          5.6413321208       -2.6063429727       -0.0408084625
 C          5.0297173612       -1.3886603527        0.1561664751
 C          3.6713852281       -1.1738309727       -0.1072935607
 B          2.9451931248        0.1817732016        0.0329137460
 C          3.5046253429        1.6131645074        0.1793519237
 C          4.8359822741        1.9809544600       -0.0513649276
 C          5.2956783958        3.2648279159        0.1368350239
 C          4.4163434042        4.2422261331        0.5860413254
 C          3.0893537079        3.9382059858        0.7821988698
 C          2.6075611322        2.6424074293        0.5471180723
 N          1.2516423538        2.4023393477        0.6812221051
 C          0.3990407933        3.4762329170        1.0736963815
 C         -0.0263985929        4.4074154940        0.1339029418
 C         -0.8770445911        5.4296609101        0.5138552577
 C         -1.3092229171        5.5219065094        1.8267899691
 C         -0.8872891639        4.5922920466        2.7624095948
 C         -0.0326399370        3.5696295973        2.3898265658
 C         -2.9282938830        0.4162339179        2.3772063720
 C         -3.6315067448        0.9788659150        3.4233435212
 H         -5.4449539339        1.9410230449        4.0381837885
 H         -6.4269137482        1.8945565739        1.7725225620
 H         -5.1747217244        0.9169280246       -0.1009755123
 H         -2.0077639361       -0.2095952560       -2.4856055484
 H         -3.0931349732       -1.4355256724       -4.3177082029
 H         -5.1155666228       -2.7868641034       -3.8816445133
 H         -6.0304212444       -2.9077442204       -1.5913753574
 H         -4.9354455320       -1.6994421366        0.2462182551
 H         -1.3704987436        1.9651714890        0.6001397019
 H         -1.1111832064       -2.1175549351       -0.5576589030
 H          0.7712378959       -4.3475232389        0.7117640901
 H         -0.5265134971       -6.2646049319       -0.1590256984
 H         -1.2031898872       -6.3171768758       -2.5299373626
 H         -0.5761055795       -4.4647212725       -4.0320264467
 H          0.7259662288       -2.5528146598       -3.1550916164
 H          2.9756246105       -4.3609828081       -1.1224381851
 H          5.3662403703       -4.6237306278       -0.7230732414
 H          6.6915362394       -2.7348796300        0.1766926321
 H          5.6118360963       -0.5706053856        0.5507593265
 H          5.5202471792        1.2299652416       -0.4138314205
 H          6.3296317491        3.5118528501       -0.0545774557
 H          4.7668369851        5.2480805280        0.7671952849
 H          2.4139447957        4.7137995982        1.1107010222
 H          0.3149002158        4.3208166879       -0.8873297262
 H         -1.2062724361        6.1526043329       -0.2175217566
 H         -1.9765786097        6.3181572557        2.1200084212
 H         -1.2257290233        4.6620876182        3.7851891237
 H          0.3001008014        2.8363670244        3.1093344860
 H         -1.9490670963       -0.0071746158        2.5445743203
 H         -3.1938717189        0.9937020013        4.4109382727
  76
       -115.28798485
 C         -4.9197151602        1.4158798645        3.2435130515
 C         -5.4819152536        1.3800644780        1.9779017910
 C         -4.7731391787        0.8679488846        0.9089470951
 C         -3.4839156022        0.3664613581        1.0936025740
 N         -2.7636347407       -0.1635649000        0.0244623646
 C         -3.3931217500       -0.8644615284       -1.0064722448
 C         -2.8938234627       -0.7820011630       -2.3073521279
 C         -3.4926645450       -1.4875202507       -3.3315302034
 C         -4.6018787758       -2.2792917152       -3.0830198732
 C         -5.1041394528       -2.3630296726       -1.7948155600
 C         -4.5063608566       -1.6681899605       -0.7613892734
 C         -1.3626918684       -0.0642804141        0.0114601429
 C         -0.7509883577        1.1375871737        0.3426432678
 C          0.6392839585        1.2283014559        0.3378679889
 C          1.4311970937        0.1094758224        0.0022860148
 C          0.7818092221       -1.0931661430       -0.3464143714
 C         -0.6074067550       -1.1763528144       -0.3361731831
 N          1.5331634781       -2.1969262883       -0.6894875499
 C          0.8177897447       -3.3284083633       -1.1805339454
 C          0.4714591656       -4.3691089553       -0.3273431813
 C         -0.2579147645       -5.4406509970       -0.8104153586
 C         -0.6474126946       -5.4745298062       -2.1393904493
 C         -0.3029174346       -4.4368810884       -2.9890882350
 C          0.4299045205       -3.3640710611       -2.5132731439
 C          2.9027261472       -2.2850355951       -0.5197911046
 C          3.5364880554       -3.5112879141       -0.7654467107
 C          4.8809800332       -3.6691605447       -0.5217147221
 C          5.6253199710       -2.6115613591       -0.0140391054
 C          5.0174681914       -1.3913460301        0.1785169573
 C          3.6635734377       -1.1689567318       -0.1011931049
 B          2.9431341113        0.1906700174        0.0302448977
 C          3.5085065777        1.6190183225        0.1824578446
 C          4.8441407062        1.9799517555       -0.0333949602
 C          5.3068672357        3.2630580278        0.1531323842
 C          4.4248716018        4.2482694252        0.5791505364
 C          3.0940563773        3.9509785903        0.7598214469
 C          2.6115968828        2.6536275663        0.5353114608
 N          1.2540437951        2.4191041980        0.6600871832
 C          0.4074710286        3.4933166639        1.0658194902
 C         -0.0826287117        4.3902649141        0.1243946708
 C         -0.9251078871        5.4127587847        0.5219315964
 C         -1.2822644402        5.5406081680        1.8543199508
 C         -0.7939979665        4.6461518683        2.7919126105
 C          0.0508199237        3.6220819669        2.4011709746
 C         -2.9222933395        0.4085037344        2.3710169566
 C         -3.6351164317        0.9327292862        3.4306879701
 H         -5.4780012641        1.8157919241        4.0762155676
 H         -6.4800839008        1.7615504195        1.8194351869
 H         -5.2119112924        0.8542172056       -0.0778958700
 H         -2.0338844572       -0.1589177010       -2.5038410216
 H         -3.0962619279       -1.4103471866       -4.3334467944
 H         -5.0716734094       -2.8256400458       -3.8866606451
 H         -5.9649720778       -2.9826594577       -1.5899651135
 H         -4.8923215317       -1.7490274748        0.2441613591
 H         -1.3696653211        1.9844176460        0.5935118790
 H         -1.1165650703       -2.0957555453       -0.5770014789
 H          0.7751854359       -4.3275962289        0.7084654003
 H         -0.5274324172       -6.2481001997       -0.1460617550
 H         -1.2210876156       -6.3096504711       -2.5119095248
 H         -0.6066253505       -4.4613789730       -4.0247714606
 H          0.7005985850       -2.5460498334       -3.1642522683
 H          2.9653352290       -4.3485678338       -1.1375547962
 H          5.3497173031       -4.6244055437       -0.7092721274
 H          6.6715959584       -2.7466164206        0.2179073560
 H          5.5983265445       -0.5777266987        0.5839118186
 H          5.5298787051        1.2241635515       -0.3827550543
 H          6.3447052058        3.5038247050       -0.0248700965
 H          4.7759796915        5.2552390963        0.7527495325
 H          2.4159196949        4.7333073962        1.0662471475
 H          0.2009904734        4.2769558557       -0.9117234816
 H         -1.3068403426        6.1081336039       -0.2106595498
 H         -1.9436042733        6.3368522208        2.1609353437
 H         -1.0726793175        4.7443331183        3.8303097884
 H          0.4372772549        2.9170175023        3.1220739818
 H         -1.9271023731        0.0186471056        2.5248802859
 H         -3.1878938953        0.9518187097        4.4138912386
  76
       -115.28785411
 C         -4.7691569985        1.4369050430        3.3337299911
 C         -5.3689927366        1.4439741424        2.0851321567
 C         -4.7141315328        0.9193257878        0.9878298612
 C         -3.4421419326        0.3636744896        1.1272901935
 N         -2.7646298353       -0.1691652221        0.0300579840
 C         -3.4316935348       -0.8482351011       -0.9888300525
 C         -2.9449304048       -0.7952828176       -2.2963165647
 C         -3.5885670453       -1.4762955102       -3.3098395481
 C         -4.7310396935       -2.2137206635       -3.0453784284
 C         -5.2199722112       -2.2696396988       -1.7505491662
 C         -4.5774668734       -1.6002582277       -0.7274205908
 C         -1.3634891857       -0.0732732700       -0.0115341864
 C         -0.7514010827        1.1295765595        0.3150748246
 C          0.6385203218        1.2181540602        0.3205813651
 C          1.4297901828        0.0969667041       -0.0083131514
 C          0.7800357131       -1.1015011598       -0.3707304298
 C         -0.6097710972       -1.1844628519       -0.3640469969
 N          1.5323141419       -2.2046868259       -0.7157198729
 C          0.8193129744       -3.3239765007       -1.2357716531
 C          0.4981473996       -4.4012128733       -0.4187167444
 C         -0.2286630722       -5.4607565181       -0.9313003442
 C         -0.6426618926       -5.4460210987       -2.2531775856
 C         -0.3246427949       -4.3714471484       -3.0666290488
 C          0.4069160518       -3.3112492828       -2.5618058615
 C          2.8980535110       -2.3018486307       -0.5186839666
 C          3.5329337783       -3.5267908746       -0.7679256928
 C          4.8702203184       -3.6949041950       -0.4930797011
 C          5.6066576265       -2.6486846103        0.0485106521
 C          5.0004414233       -1.4275972926        0.2401623924
 C          3.6551326102       -1.1944714215       -0.0706046571
 B          2.9412506962        0.1693278015        0.0528222463
 C          3.5124089436        1.5927279179        0.2302539408
 C          4.8564834017        1.9451005548        0.0561895089
 C          5.3230877145        3.2234884880        0.2642350121
 C          4.4362173467        4.2133943476        0.6687172830
 C          3.0985272918        3.9251209261        0.8078379836
 C          2.6136558646        2.6323080819        0.5632727754
 N          1.2519123121        2.4066690507        0.6523109535
 C          0.4009664467        3.4903536815        1.0225990304
 C         -0.0482806733        4.3831551155        0.0571896820
 C         -0.8949265677        5.4164102397        0.4161618386
 C         -1.2976440883        5.5585426506        1.7339970504
 C         -0.8510105785        4.6674837736        2.6953530518
 C         -0.0015892140        3.6331526473        2.3434389333
 C         -2.8439724641        0.3586602181        2.3887882849
 C         -3.5022994795        0.8952119110        3.4768465757
 H         -5.2846075265        1.8488488782        4.1878898818
 H         -6.3541280505        1.8697170498        1.9622219270
 H         -5.1810529627        0.9399484688        0.0141017261
 H         -2.0606110397       -0.2124990307       -2.5074098818
 H         -3.2005916882       -1.4224274145       -4.3166101451
 H         -5.2355407884       -2.7406304111       -3.8408817796
 H         -6.1058294949       -2.8480425855       -1.5322666455
 H         -4.9543833991       -1.6611420933        0.2829010715
 H         -1.3705880997        1.9762678164        0.5649341078
 H         -1.1194218470       -2.1036958438       -0.6046667777
 H          0.8193427487       -4.3975537460        0.6126637603
 H         -0.4777403238       -6.2967714953       -0.2948780763
 H         -1.2144100341       -6.2719191717       -2.6484881213
 H         -0.6475284129       -4.3577180290       -4.0966994445
 H          0.6564699791       -2.4648047551       -3.1843195381
 H          2.9687728520       -4.3557504430       -1.1680089899
 H          5.3390137061       -4.6495680975       -0.6834104355
 H          6.6460278649       -2.7921852178        0.3050307319
 H          5.5753155583       -0.6218283077        0.6690459903
 H          5.5468396139        1.1865556226       -0.2776393344
 H          6.3676236681        3.4571455146        0.1190437180
 H          4.7893077930        5.2168631737        0.8577803498
 H          2.4171510490        4.7108879619        1.0978077114
 H          0.2708592249        4.2586308007       -0.9672540356
 H         -1.2431715463        6.1095025857       -0.3350515547
 H         -1.9610429357        6.3638358742        2.0110833950
 H         -1.1656003368        4.7766043894        3.7223089028
 H          0.3511289310        2.9300410548        3.0832346981
 H         -1.8621059453       -0.0751102456        2.5067043395
 H         -3.0265773172        0.8791514004        4.4466428942
  76
       -115.28768407
 C         -4.7999182049        1.3457907393        3.3571378808
 C         -5.3955107237        1.3718634089        2.1067729047
 C         -4.7300384388        0.8795964304        1.0009530753
 C         -3.4514294971        0.3370593259        1.1329313643
 N         -2.7659123768       -0.1668039644        0.0279621376
 C         -3.4236770710       -0.8205076693       -1.0136266038
 C         -2.9302787113       -0.7244403542       -2.3160852888
 C         -3.5635537479       -1.3788161591       -3.3534363640
 C         -4.7017163801       -2.1323439265       -3.1174637274
 C         -5.1965781090       -2.2318342214       -1.8274485638
 C         -4.5645922895       -1.5890816953       -0.7809667728
 C         -1.3641532872       -0.0700282311       -0.0055691819
 C         -0.7520767724        1.1289891203        0.3340030196
 C          0.6380086933        1.2190519384        0.3327374506
 C          1.4290498452        0.1001987295       -0.0048263175
 C          0.7788719622       -1.0973380210       -0.3702251540
 C         -0.6110210420       -1.1783828251       -0.3680331717
 N          1.5305984610       -2.1996417329       -0.7172443451
 C          0.8170448597       -3.3278538022       -1.2182449581
 C          0.4730180644       -4.3762805404       -0.3734629014
 C         -0.2516240545       -5.4467720037       -0.8656718112
 C         -0.6388001240       -5.4721137334       -2.1955771491
 C         -0.2972864206       -4.4265301915       -3.0366645041
 C          0.4307921119       -3.3545168759       -2.5515956973
 C          2.8980612494       -2.2940378826       -0.5330478429
 C          3.5313194217       -3.5186785775       -0.7881766907
 C          4.8716624013       -3.6851139444       -0.5279043965
 C          5.6121444818       -2.6380636889        0.0064798795
 C          5.0060172006       -1.4183081810        0.2070334616
 C          3.6573014563       -1.1864131981       -0.0896752822
 B          2.9409409485        0.1749826468        0.0460528429
 C          3.5106765399        1.5988910485        0.2240326354
 C          4.8524353481        1.9547127764        0.0396923027
 C          5.3178892556        3.2337667215        0.2463438442
 C          4.4321310368        4.2209112057        0.6597203167
 C          3.0963504614        3.9292150835        0.8096299351
 C          2.6124403159        2.6356881753        0.5668798658
 N          1.2518039263        2.4071821260        0.6652306998
 C          0.4017714733        3.4896967209        1.0411467277
 C         -0.0622589976        4.3764708316        0.0771293636
 C         -0.9076703366        5.4087051385        0.4417980590
 C         -1.2940985823        5.5561280616        1.7639524426
 C         -0.8323489171        4.6713922650        2.7239491565
 C          0.0156420316        3.6378138869        2.3662336120
 C         -2.8566250569        0.3148629987        2.3959275315
 C         -3.5258235640        0.8192614149        3.4927255039
 H         -5.3241354547        1.7309884870        4.2184119532
 H         -6.3860587807        1.7864699609        1.9892795495
 H         -5.1941159485        0.9152383732        0.0263192173
 H         -2.0490213959       -0.1292202171       -2.5042313408
 H         -3.1704393004       -1.2919222699       -4.3558996327
 H         -5.1973721577       -2.6397609631       -3.9309874623
 H         -6.0778644270       -2.8250264446       -1.6315648743
 H         -4.9460281724       -1.6831713651        0.2251087791
 H         -1.3710971825        1.9726263943        0.5945027993
 H         -1.1216797682       -2.0938891082       -0.6205334765
 H          0.7760078693       -4.3419634159        0.6628296920
 H         -0.5189195771       -6.2603783608       -0.2079810800
 H         -1.2088936435       -6.3064779154       -2.5752116536
 H         -0.5995777540       -4.4439786427       -4.0729033652
 H          0.6998975148       -2.5310259313       -3.1963002471
 H          2.9632753120       -4.3481612839       -1.1817617021
 H          5.3401764596       -4.6384680093       -0.7253967375
 H          6.6546344067       -2.7799705889        0.2510096847
 H          5.5842073380       -0.6127839038        0.6318599578
 H          5.5419169655        1.1984738771       -0.3010064239
 H          6.3608824298        3.4696985549        0.0940967111
 H          4.7848806748        5.2242196055        0.8503185490
 H          2.4157616882        4.7127151429        1.1074589052
 H          0.2443593331        4.2480534014       -0.9506420707
 H         -1.2678052692        6.0969832409       -0.3082410117
 H         -1.9566057606        6.3607060165        2.0452179136
 H         -1.1338695643        4.7846313636        3.7543780483
 H          0.3803931268        2.9397007966        3.1049449136
 H         -1.8693693271       -0.1080035107        2.5082920384
 H         -3.0537265514        0.7879212186        4.4639288878
