79
 energy: -131.452049863786 gnorm: 0.000056077801 xtb: 6.7.1 (edcfbbe)
C            4.41195410294532        4.23444834273221       -0.37828396048128
C            4.04256520307871        3.54439159734358        0.76578522530785
C            2.87279617519654        2.80703451421922        0.75606779219777
C            2.11382552082016        2.77337327511276       -0.41466561099582
C            0.87598783808247        1.98038836578307       -0.51818345758348
C           -0.24470398540762        2.54234776433957       -1.12235326955375
C           -1.43632531882439        1.85222668865406       -1.20485567150272
C           -1.52950360597467        0.56329918508614       -0.68383198932467
N           -2.73272573429292       -0.14755387916172       -0.75547191247424
C           -2.88100561518305       -1.43299950999166       -1.24294431496026
C           -1.93927440512559       -2.28578685311959       -1.80044268445127
C           -2.37143074740386       -3.52248393198118       -2.24048284257721
C           -3.70710681964382       -3.90739754931202       -2.14077359761132
C           -4.65429105188609       -3.05541586595700       -1.61008137655427
C           -4.24103440277446       -1.80768971310918       -1.16200869420385
C           -4.93202721143359       -0.69002852372248       -0.59191605816613
C           -6.24419321351029       -0.41540368579470       -0.23385132946677
O           -7.32637239415869       -1.22448262521567       -0.36699253667429
C           -8.38573034476573       -0.52272957246019        0.12565905895330
C           -9.69750152988254       -0.95406214857780        0.19302963140264
C          -10.62475278611366       -0.08071751490328        0.73387949118895
C          -10.25312244040767        1.18061065090302        1.19159598723703
C           -8.94236127269417        1.61039600697476        1.12343395951869
C           -7.99374202886697        0.75118741129048        0.58447760246340
C           -6.57708390994291        0.82144528348371        0.34748939991596
C           -5.59973976587609        1.78899950614637        0.58764057245232
C           -4.29054170664880        1.53951735618322        0.23848726541522
C           -3.96981029763243        0.31940585964330       -0.35792008447722
C           -0.40921257810890       -0.02594792302717       -0.10911096130663
C            0.78996714554898        0.66893208135174       -0.03246602772444
N            1.91059178196025        0.03265026265624        0.52375240158196
C            1.98816342317303       -0.47369518850836        1.80630554608639
C            1.01423905691244       -0.54016033691845        2.79187237191365
C            1.37198744201692       -1.07942611063195        4.01303003816758
C            2.66583403151704       -1.53629668946546        4.25760421691782
C            3.64488149066355       -1.45552068902025        3.28785768626363
C            3.30754358994229       -0.91657117976171        2.05322850030184
C            4.04685495959921       -0.66010894441461        0.85323476542567
C            5.35643819913197       -0.84855100073756        0.43448719670304
O            6.38601907981557       -1.37846442996429        1.14426285579086
C            7.46833337708097       -1.35234717866743        0.31622197107491
C            8.74345716251615       -1.79444825445076        0.61610609365052
C            9.70349757807327       -1.67838528102965       -0.37381179115886
C            9.39889391966349       -1.13824754623362       -1.62044094663128
C            8.12472208913108       -0.69643334908498       -1.91840473650630
C            7.14409882903411       -0.80303160547953       -0.94080288606845
C            5.74704995095424       -0.47081964278409       -0.86255191192173
C            4.82955908442781        0.08001125423980       -1.75988688820065
C            3.52375839583695        0.27412317068234       -1.36878148608846
C            3.15135533497213       -0.07329094598870       -0.06975874343325
N            2.45173333424103        3.46944037054460       -1.49643948522707
C            3.56573866035048        4.17467531520568       -1.47480381265013
H            5.32311435002345        4.81048991292572       -0.41460326918772
H            4.65642165857639        3.58004347870015        1.65414014791378
H            2.54814137429959        2.28122818221764        1.64086896175472
H           -0.16110604582981        3.53967169913432       -1.52499765800162
H           -2.29443184249380        2.29625731056458       -1.68524215804373
H           -0.90521269973189       -1.99297498694693       -1.90180628961830
H           -1.65654843899983       -4.20511842447605       -2.67553627350922
H           -4.00162680155740       -4.88405826315954       -2.49457620340691
H           -5.69372356693300       -3.33710599639294       -1.54393864474616
H           -9.97813759178767       -1.93233370505960       -0.16312593725176
H          -11.65842187554841       -0.38457407772986        0.80233429465330
H          -11.00707151479066        1.83244767921291        1.60733420910158
H           -8.65683343864935        2.58868292172771        1.47895132685997
H           -5.87332456380197        2.72474504241966        1.04959031069920
H           -3.52196437612864        2.27109666357827        0.43450773908175
H           -0.46662498913034       -1.03141239753075        0.27972041809921
H            0.01287868948524       -0.17627547688137        2.61597806436280
H            0.63178725531420       -1.14550298370130        4.79664102253409
H            2.90253770770331       -1.95284818995802        5.22521617681400
H            4.65207026520788       -1.79535257345405        3.47306593565662
H            8.97200616222503       -2.21217966117234        1.58354339287599
H           10.70991087257251       -2.01453605235812       -0.17477676453845
H           10.17643810053675       -1.06563131337487       -2.36630888445831
H            7.89078475584838       -0.27851572456663       -2.88562049870176
H            5.14646394943600        0.34690237127798       -2.75580016279694
H            2.80090363262476        0.68976291663196       -2.05315128781491
H            3.78957035519602        4.71438899510745       -2.38616528225206
