  79
       -131.45196182
 C          4.3934333896        4.2696283156       -0.3985766364
 C          4.0383069129        3.5712603138        0.7450148064
 C          2.8758041644        2.8223551977        0.7400978345
 C          2.1092369384        2.7864923245       -0.4255401898
 C          0.8745235692        1.9881205286       -0.5239108699
 C         -0.2502519072        2.5488664459       -1.1220907630
 C         -1.4403492869        1.8561653359       -1.2017883583
 C         -1.5270087191        0.5640745929       -0.6875224402
 N         -2.7289109178       -0.1492730013       -0.7601031863
 C         -2.8799207284       -1.4244634018       -1.2724861811
 C         -1.9394853573       -2.2676204261       -1.8463217367
 C         -2.3741674097       -3.4937927908       -2.3124455240
 C         -3.7109213707       -3.8772277008       -2.2218428441
 C         -4.6563390345       -3.0350093970       -1.6726397543
 C         -4.2407210467       -1.7979942077       -1.1978529504
 C         -4.9289506781       -0.6910753700       -0.6037048187
 C         -6.2393603223       -0.4210363293       -0.2354142411
 O         -7.3242073071       -1.2245459631       -0.3808954655
 C         -8.3797776309       -0.5310965703        0.1313646306
 C         -9.6923808319       -0.9604310935        0.1957440694
 C        -10.6147002209       -0.0967738374        0.7601200775
 C        -10.2377942316        1.1533297202        1.2435360601
 C         -8.9263257579        1.5813808019        1.1779128812
 C         -7.9826594406        0.7317640568        0.6155439609
 C         -6.5670744094        0.8040697343        0.3731923542
 C         -5.5873637915        1.7650573606        0.6294384769
 C         -4.2801106182        1.5204217596        0.2700671833
 C         -3.9643598547        0.3117431560       -0.3516729496
 C         -0.4032211722       -0.0237628279       -0.1186505166
 C          0.7934775688        0.6757715580       -0.0402843649
 N          1.9139810996        0.0425784028        0.5199866817
 C          1.9845754619       -0.4607841711        1.8041996985
 C          1.0062532022       -0.5205682413        2.7859024939
 C          1.3569683031       -1.0570106428        4.0102058645
 C          2.6481466060       -1.5178788514        4.2614112541
 C          3.6313608739       -1.4441420821        3.2954422571
 C          3.3012466366       -0.9074496985        2.0578514914
 C          4.0462098903       -0.6568903660        0.8602187275
 C          5.3563267190       -0.8532689882        0.4469562278
 O          6.3793173871       -1.3900698926        1.1610052419
 C          7.4644053414       -1.3742283149        0.3363970398
 C          8.7343372674       -1.8283920266        0.6403008065
 C          9.6980909387       -1.7232083704       -0.3472768861
 C          9.4022346856       -1.1816351958       -1.5954318980
 C          8.1332490707       -0.7277793995       -1.8973645626
 C          7.1488992402       -0.8236866059       -0.9223378251
 C          5.7541747316       -0.4802269839       -0.8492505633
 C          4.8436037413        0.0759032349       -1.7504247126
 C          3.5371810845        0.2776183614       -1.3649456665
 C          3.1570671228       -0.0677300611       -0.0676367187
 N          2.4342941240        3.4888674520       -1.5072975299
 C          3.5414286613        4.2048619111       -1.4902878445
 H          5.2984549632        4.8550430025       -0.4383570167
 H          4.6574223826        3.6099509794        1.6295816848
 H          2.5617402542        2.2905302639        1.6250831663
 H         -0.1710153458        3.5480780368       -1.5209062663
 H         -2.3025883468        2.3002962337       -1.6747343331
 H         -0.9046946334       -1.9747998499       -1.9400005380
 H         -1.6606257182       -4.1690335396       -2.7610164671
 H         -4.0076924917       -4.8451496951       -2.5971567028
 H         -5.6962906593       -3.3162301298       -1.6127034675
 H         -9.9775647552       -1.9300441120       -0.1799044500
 H        -11.6487055191       -0.3997484387        0.8273567655
 H        -10.9881025466        1.7978191625        1.6769939622
 H         -8.6363870746        2.5510171117        1.5530203024
 H         -5.8578009447        2.6914988496        1.1115096964
 H         -3.5088427639        2.2461244612        0.4772164110
 H         -0.4559171774       -1.0313537538        0.2655093132
 H          0.0070463045       -0.1535295062        2.6044728782
 H          0.6135014813       -1.1174756618        4.7911638472
 H          2.8792395038       -1.9322765767        5.2312779147
 H          4.6364382934       -1.7872595800        3.4858962838
 H          8.9562901753       -2.2474728152        1.6087084874
 H         10.7006352776       -2.0689477611       -0.1450791642
 H         10.1824606680       -1.1179639793       -2.3393351886
 H          7.9058961729       -0.3085088337       -2.8655518936
 H          5.1663677901        0.3409592317       -2.7449538833
 H          2.8195160448        0.6975271698       -2.0522196920
 H          3.7556783638        4.7473942567       -2.4023307659
