79
 energy: -131.452050547539 gnorm: 0.000048826051 xtb: 6.7.1 (edcfbbe)
C            4.32512103224205        4.25565506317325       -0.08195969106245
C            3.95234632974183        3.49708038681972        1.01673177466173
C            2.79217509335454        2.74740775556401        0.95188968354348
C            2.04589490302355        2.77170739036980       -0.22718398311940
C            0.81790487209377        1.97341715382997       -0.38934431941936
C           -0.30003315197874        2.55664131567403       -0.97844045894301
C           -1.48305010367170        1.86079526296709       -1.11609257405804
C           -1.57131453486460        0.54509512753797       -0.66551356782586
N           -2.76540314679597       -0.17236993705949       -0.79650001688028
C           -2.89063821861615       -1.43271959039066       -1.35200887483805
C           -1.92804279503385       -2.25165553203442       -1.92453295482505
C           -2.33907177446870       -3.46751778006698       -2.43699664486638
C           -3.67419525476508       -3.86452370439771       -2.39435381890300
C           -4.64177633184267       -3.04472263909251       -1.85000181636244
C           -4.24976836668178       -1.81853234626770       -1.32933674521654
C           -4.96499489367567       -0.73416615246724       -0.72593977248915
C           -6.28959274531037       -0.48413197764999       -0.39686812613631
O           -7.36178238148458       -1.29078915055286       -0.60465547452859
C           -8.44108963462761       -0.61853870728888       -0.11415425342619
C           -9.75178125464651       -1.05834983618037       -0.11170908252413
C          -10.70177600899534       -0.21616713066230        0.43898731852512
C          -10.35323491745605        1.02330973116605        0.96887324804524
C           -9.04348859118320        1.46150111890244        0.96576137779037
C           -8.07222818214618        0.63332151118990        0.41860998498405
C           -6.64894071566760        0.72128217829989        0.23268781222492
C           -5.68568076070655        1.67995534773391        0.55215904922605
C           -4.36444913231900        1.45433030783319        0.23328073696545
C           -4.01711264635800        0.26748076128186       -0.41335470849357
C           -0.45368629350344       -0.06304768847909       -0.10531101039323
C            0.73795150584525        0.63714450335734        0.02427729457663
N            1.85801987157960       -0.01925422710830        0.55795177410152
C            1.92562963545839       -0.59813329760950        1.80993208423002
C            0.94229132685397       -0.72613821738712        2.77997257643784
C            1.29106620821568       -1.33225429174674        3.97202423115172
C            2.58518514441252       -1.79507997384877        4.20361732797981
C            3.57325352578412       -1.65423609289560        3.25001763737492
C            3.24492756970355       -1.04793249106376        2.04455643741154
C            3.99450254218662       -0.72018152780493        0.86853545034797
C            5.30862005016702       -0.88032499823670        0.45212199134293
O            6.33331088277928       -1.44778265396907        1.13965983377997
C            7.42303974305248       -1.37137268631765        0.32452566754268
C            8.69666589667853       -1.82720185629097        0.60993320765866
C            9.66537661745780       -1.65131742155581       -0.36257434122536
C            9.37063657924538       -1.04027447413578       -1.57845158964062
C            8.09785182937053       -0.58527475430656       -1.86215272857780
C            7.10866606681102       -0.75100410172880       -0.90156280158512
C            5.70992082742328       -0.42752435253395       -0.81731698532259
C            4.79885116602834        0.17121522354236       -1.69015808749308
C            3.48857332727501        0.33783687280493       -1.30131528903671
C            3.10510935937818       -0.08524609711295       -0.02820036707422
N            2.38690768492065        3.53187714964234       -1.26399823690978
C            3.49172062827395        4.24783810710612       -1.18985061761178
H            5.22903666263734        4.84407930049470       -0.07499135992034
H            4.55613794624115        3.48967059457398        1.91263979584382
H            2.46483262196228        2.16825345915248        1.80167935798188
H           -0.22069004834551        3.57483054792473       -1.32592534298111
H           -2.33777807567128        2.32168486990382       -1.58645932985513
H           -0.89364493271879       -1.94872751143210       -1.98323048647516
H           -1.60739112279327       -4.12366670076860       -2.88468514601389
H           -3.95178009735598       -4.82424589122271       -2.80380460925963
H           -5.68082454163110       -3.33459107530932       -1.82784720248386
H          -10.01460957774574       -2.01947064078285       -0.52375679591617
H          -11.73530229956955       -0.52752321885971        0.45797376210677
H          -11.12460337773324        1.65120301659343        1.38947605062966
H           -8.77589004924339        2.42288228668497        1.37697035492650
H           -5.97966148783495        2.59022763922908        1.05101611154054
H           -3.60734726742502        2.17878585532711        0.49069923878443
H           -0.50661761822797       -1.08780264008485        0.23000987206008
H           -0.05945447853144       -0.35837319928543        2.61469219227031
H            0.54346315614201       -1.44710662835470        4.74287493064562
H            2.81482352331499       -2.26432401007354        5.14854743170264
H            4.58059940960359       -1.99851735163880        3.42592895756519
H            8.91772967217702       -2.30016893628110        1.55338329119729
H           10.67092886706759       -1.99600116990506       -0.17405255770913
H           10.15484784432031       -0.92222812196728       -2.31142479063619
H            7.87139962032315       -0.11245399909728       -2.80557522191087
H            5.12418991404738        0.49615770014345       -2.66590217914029
H            2.77062580294540        0.78943745940124       -1.96782026092124
H            3.71859555149576        4.84086078513879       -2.06668462512022
