79
 energy: -131.361446556279 gnorm: 0.000032067274 xtb: 6.7.1 (edcfbbe)
C            3.84548464913004        5.52630861642573       -1.72253195603201
C            4.21602724264035        4.17912158506674       -1.57746978497409
C            3.26357999605930        3.23005018589183       -1.34163373729542
C            1.89109404528515        3.60366864113355       -1.22132371860422
C            0.82674051011081        2.71546751777846       -0.95456145592716
C           -0.50478196376088        3.11147962078011       -1.28771629783505
C           -1.55468094441893        2.25276150064285       -1.23396769967682
C           -1.36304494069413        0.90841183547561       -0.81647052237774
N           -2.43157683385187        0.01935579440969       -0.76620153397595
C           -2.42007658059948       -1.27695437006122       -1.24785629798862
C           -1.41476525226334       -1.96896019475977       -1.90762007809309
C           -1.67844672245731       -3.26299750395086       -2.31632940102752
C           -2.91682023257005       -3.85971082146152       -2.08667719000153
C           -3.93526294693810       -3.16841643669598       -1.45809436844867
C           -3.68973278744698       -1.86823974858510       -1.04080329888534
C           -4.49365964632621       -0.87168039763793       -0.40038996002185
C           -5.79178826531368       -0.80527066910618        0.07682920998613
O           -6.74376219887549       -1.77101743365295        0.02717135431071
C           -7.84932328765530       -1.24418659436962        0.62674519646372
C           -9.06656349573703       -1.87284601386447        0.80351687169319
C          -10.06401813795114       -1.15499859658887        1.44238884984475
C           -9.84993844812778        0.14683031274243        1.88871213140457
C           -8.63318518363812        0.77451870757548        1.71167330023345
C           -7.61586239102196        0.07415407571870        1.07273637379759
C           -6.25853127116218        0.36466656266985        0.71125004154229
C           -5.41995208131421        1.47023198774093        0.88911630874859
C           -4.12692541160504        1.42825085612475        0.41811517589091
C           -3.67858635283316        0.27980639300479       -0.24048342219705
C           -0.09011844815730        0.51172680285171       -0.39449668642146
C            0.97402226744719        1.38345587128398       -0.41229639456420
N            2.17558358134222        0.98299234309485        0.18479204631199
C            2.81867593771199        1.66035830791479        1.20493397334526
C            2.47841218879834        2.85389511423510        1.82482314716636
C            3.30413178639697        3.31030158462093        2.83453073933605
C            4.43385877806796        2.59732411592392        3.23159635445124
C            4.76512632325162        1.39566938764234        2.63537796456405
C            3.95051611831259        0.92057389840973        1.61780105095301
C            3.97457896452532       -0.26036689369556        0.80589934581834
C            4.79974399529524       -1.36694210157095        0.68681620224926
O            5.91293052963564       -1.65270176219398        1.40883447950684
C            6.38054517418074       -2.84006861195796        0.92984437224461
C            7.49942511558085       -3.52077733267992        1.37071081566755
C            7.80040660947680       -4.71824842169340        0.74441043324639
C            7.00938541568361       -5.21741718736950       -0.28741133584404
C            5.89178423511281       -4.53654105494687       -0.72742101339803
C            5.56925225147125       -3.33181381468080       -0.11399958242294
C            4.52616194757798       -2.35883843097834       -0.27671768357969
C            3.43511365571906       -2.24127082656239       -1.14256743566221
C            2.60060349630245       -1.15149753880816       -1.04009970575414
C            2.85798227808250       -0.18571931526265       -0.06431319375262
N            1.57287543928093        4.91504380488276       -1.42374995198776
C            2.48848182428460        5.81309509130476       -1.65685604904503
H            4.57300746042883        6.30252236002428       -1.88895906021806
H            5.25417090156366        3.89516823539053       -1.67583564171944
H            3.53280314340121        2.18679714225518       -1.31958431773107
H           -0.63604565956208        4.12606213056628       -1.62968398929681
H           -2.53770381139950        2.56429758258016       -1.55243242511423
H           -0.46130669195320       -1.50838011722746       -2.11154265641914
H           -0.90958342077625       -3.82142705174115       -2.82898322564744
H           -3.08268554638208       -4.87388293040384       -2.41785407792120
H           -4.90347339368680       -3.61598221199991       -1.29566145308918
H           -9.22597637625569       -2.88091976120088        0.45586460790016
H          -11.02798146648456       -1.61537648924026        1.59752052580093
H          -10.65394300964118        0.67192272441763        2.38251762823515
H           -8.46923842624609        1.78327461100971        2.05824306757566
H           -5.78768781987698        2.34419947834797        1.40298698905841
H           -3.46091787629697        2.26220177659443        0.57317019237695
H            0.03866824385112       -0.47018384379703        0.03850096434224
H            1.60167277460980        3.40780915182310        1.52811706414399
H            3.06627144167314        4.24002269552680        3.32932715147121
H            5.05372066077842        2.99037429711751        4.02355154668150
H            5.63090589585447        0.83142177238038        2.94594833522153
H            8.10754952680782       -3.12895425785216        2.17015775000850
H            8.66732294655362       -5.27677755786775        1.06341670995511
H            7.27863955252657       -6.15545915326959       -0.74951672623103
H            5.27988450147691       -4.92526533160391       -1.52689440806189
H            3.25759958229626       -3.00022363371055       -1.88811650727118
H            1.76799531613067       -1.02986547087855       -1.71458445752960
H            2.12795815850651        6.82726872415083       -1.78159702297672
