  106
       -171.36464926
 C          5.7568220901       -6.1574045105        0.7807120242
 C          6.6597896213       -5.1798092700        0.3915693269
 C          6.2124933281       -3.9157579744        0.0606390871
 C          4.8513186989       -3.6214447904        0.1193445139
 C          4.3749671170       -2.2826406982       -0.2144549746
 N          5.2709975774       -1.3573603123       -0.5422618002
 C          4.7863869333       -0.1794660731       -0.9172566357
 C          5.7134463624        0.8871649735       -1.2802412151
 C          5.2321748886        2.0581637397       -1.8626148797
 C          6.1007945301        3.0925713754       -2.1487820461
 C          7.4495246560        2.9686061735       -1.8534893829
 C          7.9325145696        1.8034685208       -1.2774305752
 C          7.0705919650        0.7626630858       -0.9922484962
 N          3.4890436215        0.1190179069       -0.9184881601
 C          2.6867012758       -0.8188854357       -0.4370630431
 C          1.2876987822       -0.4392488838       -0.1883921841
 C          0.2569554318       -1.2853159667       -0.5629366050
 C         -1.0720848036       -0.9187487282       -0.3814977260
 N         -2.0891011957       -1.7699232429       -0.8262098675
 C         -2.2953208115       -3.0645662724       -0.3849997492
 C         -1.5045315830       -3.8531952650        0.4364252642
 C         -1.9584817974       -5.1230454864        0.7403907061
 C         -3.1712122352       -5.5996285476        0.2481990953
 C         -3.9707613940       -4.8107895333       -0.5549840066
 C         -3.5357915333       -3.5317163012       -0.8740025010
 C         -4.1084303785       -2.4566300926       -1.6353522334
 C         -5.3060220733       -2.3016501153       -2.3205052911
 C         -5.5558805164       -1.0995170936       -2.9503266840
 C         -4.6172921761       -0.0699274850       -2.9295545275
 C         -3.4173448889       -0.2033673520       -2.2590587685
 C         -3.1826741743       -1.3920271538       -1.5826889997
 C         -1.3625755341        0.3154083134        0.2221378414
 C         -2.7446679148        0.7433619609        0.4720330066
 N         -3.0025775249        2.0413300816        0.3983557108
 C         -4.2828246547        2.3842473296        0.5338684506
 C         -4.6111361997        3.8070658943        0.5296211990
 C         -5.9297494398        4.2229400554        0.7059043456
 C         -6.2331728884        5.5704683146        0.7103076845
 C         -5.2282803295        6.5106109779        0.5402736348
 C         -3.9152630493        6.1015998649        0.3641556587
 C         -3.6041479016        4.7560185976        0.3580775189
 N         -5.2744384323        1.5048953226        0.6439229498
 C         -4.9145999543        0.2324755138        0.7582563082
 C         -5.9480986803       -0.7940805062        0.8466732700
 C         -7.2538252297       -0.5054007345        0.4583958390
 C         -8.2097816689       -1.5022427792        0.4667609153
 C         -7.8725337931       -2.7859754727        0.8669798731
 C         -6.5768671208       -3.0731381326        1.2667019324
 C         -5.6144550125       -2.0832830897        1.2555550067
 N         -3.6509093074       -0.1863448638        0.7372050331
 C         -0.3268202943        1.1583378623        0.6040132977
 C          0.9978772936        0.7969969337        0.4113750803
 N          2.0288677530        1.6530179524        0.8187975279
 C          2.2653228062        2.9089874455        0.2865915747
 C          1.4549467191        3.6871428860       -0.5247908100
 C          1.9449322541        4.9122805834       -0.9370148454
 C          3.2107565418        5.3537407865       -0.5592909544
 C          4.0274845036        4.5744194084        0.2356981564
 C          3.5567545728        3.3402625538        0.6624036784
 C          4.1328096418        2.2811349291        1.4436072088
 C          5.3727419725        2.0960858389        2.0399759867
 C          5.6155379600        0.9112414797        2.7053952045
 C          4.6309761157       -0.0687868764        2.8095301329
 C          3.3870894407        0.0962798285        2.2313349120
 C          3.1570637371        1.2636321637        1.5175860602
 N          3.0647605333       -2.0484748558       -0.1269382108
 C          3.9469177055       -4.6079143630        0.5100349902
 C          4.4016978000       -5.8699496960        0.8382961486
 H          6.1098855023       -7.1451546701        1.0392767731
 H          7.7147424309       -5.4075488865        0.3469169010
 H          6.8986121770       -3.1412075013       -0.2449112425
 H          4.1786857550        2.1402408981       -2.0814897171
 H          5.7245775526        4.0005494041       -2.5963684838
 H          8.1262184509        3.7821256503       -2.0718721088
 H          8.9839972100        1.7114041741       -1.0476771670
 H          7.4241229945       -0.1479210716       -0.5340629807
 H          0.4958834389       -2.2234671927       -1.0414635724
 H         -0.5701081361       -3.4871475380        0.8346864239
 H         -1.3608416446       -5.7590337950        1.3768268023
 H         -3.4894938347       -6.5987549527        0.5071938076
 H         -4.9176831721       -5.1725896087       -0.9264943645
 H         -6.0269784844       -3.1046682353       -2.3490976579
 H         -6.4878986268       -0.9516230011       -3.4751312152
 H         -4.8327145070        0.8541106490       -3.4458629203
 H         -2.6937766523        0.5998528777       -2.2491502108
 H         -6.6966253320        3.4759401097        0.8406062426
 H         -7.2548492223        5.8928026816        0.8482856777
 H         -5.4687811160        7.5638326233        0.5452785410
 H         -3.1342287944        6.8360082887        0.2320769838
 H         -2.5880722344        4.4193690809        0.2213685322
 H         -7.4935724263        0.4974399058        0.1402694749
 H         -9.2209172585       -1.2823838275        0.1567756513
 H         -8.6221094655       -3.5641888402        0.8673610403
 H         -6.3141770073       -4.0724102476        1.5810967814
 H         -4.6002175571       -2.2914875214        1.5596079478
 H         -0.5689033686        2.0957480973        1.0819260139
 H          0.4787101400        3.3453397139       -0.8346207096
 H          1.3337209424        5.5394444155       -1.5694235423
 H          3.5566558359        6.3182601478       -0.9010039254
 H          5.0147324248        4.9084186534        0.5172925870
 H          6.1311827094        2.8612818693        1.9708616211
 H          6.5793320523        0.7388762405        3.1606203613
 H          4.8439325918       -0.9797148135        3.3497029343
 H          2.6266991098       -0.6667355622        2.3198904811
 H          2.8966811392       -4.3636499767        0.5520459593
 H          3.7007293596       -6.6338336827        1.1414442286
