106
 energy: -171.375135097574 gnorm: 0.000082090494 xtb: 6.7.1 (edcfbbe)
C            5.19507390254076       -6.56983653923086       -0.94007717580142
C            6.16797002857733       -5.61346598261075       -1.18735948794042
C            5.85546958104158       -4.26952781327138       -1.11108740966254
C            4.56022252541091       -3.86981454143303       -0.78524881302678
C            4.22764762598558       -2.44545336474762       -0.69981345613399
N            5.23317662165628       -1.56706157405023       -0.80912491963346
C            4.88470702666855       -0.27830336523888       -0.77414638021733
C            5.93221999963283        0.73315293563097       -0.90574766904047
C            5.59785811174411        2.04698363241130       -1.22763241999127
C            6.58439640011259        3.00871744067785       -1.32450394012903
C            7.90928970031312        2.67106787616381       -1.09406974549844
C            8.24778505977005        1.36481309855986       -0.77502466742959
C            7.26577605086399        0.39677829334932       -0.68423908902666
N            3.64416304463074        0.13454752654827       -0.61550658791172
C            2.69731694712362       -0.80004001900874       -0.43294974584099
C            1.35487407448471       -0.39969083803499       -0.15336944194590
C            0.29710264329121       -1.29555433719412       -0.37535322696732
C           -1.01956871812099       -0.91811124146591       -0.25788116488693
N           -2.02627494589481       -1.82451542111632       -0.59394397790367
C           -2.16960815658041       -3.09435589463230       -0.08206851221669
C           -1.42149810318226       -3.73900112016076        0.89544480898285
C           -1.79492650664162       -5.02272114863930        1.24876505536149
C           -2.88814532990531       -5.64960325809448        0.65430229435191
C           -3.64797693346950       -5.00468637836277       -0.30719439718004
C           -3.29213295438481       -3.71785543950643       -0.67898332792974
C           -3.83877755841116       -2.76433655981329       -1.61056669942438
C           -4.91359486264359       -2.79150204921571       -2.48527329528757
C           -5.14713635296068       -1.68305168059074       -3.28070362400756
C           -4.31230805835791       -0.57065963236595       -3.22480670939424
C           -3.23346146268953       -0.52284796262534       -2.35980179914154
C           -3.01920125135269       -1.61589829493727       -1.53312606624014
C           -1.34625786104730        0.41040434375693        0.15092727129255
C           -2.68882175666840        0.81063762429778        0.43005244971104
N           -2.95532081462051        2.13042256492729        0.50428754337211
C           -4.21945719163454        2.45578647674281        0.69689612792974
C           -4.55247734571771        3.88004883266782        0.78217361370841
C           -5.84797111812064        4.27933686552847        1.10758518071368
C           -6.16098633670604        5.62316199950394        1.18368893607962
C           -5.18835702487999        6.57986802660042        0.93665980909460
C           -3.89766736794158        6.18892063470975        0.61341903160379
C           -3.57835389008205        4.84703243199674        0.53659394686556
N           -5.22485715077669        1.57720540037191        0.80617846030475
C           -4.87619062982102        0.28849151876571        0.77085662261496
C           -5.92364119739389       -0.72303226664189        0.90247717636468
C           -7.25742154039243       -0.38627107976475        0.68285412177717
C           -8.23948390139844       -1.35422084100457        0.77393488155834
C           -7.90081845877807       -2.66083881819792        1.09131008575258
C           -6.57569830273403       -2.99890598072151        1.31982037496224
C           -5.58913107494505       -2.03721412057513        1.22278411265738
N           -3.63560903600146       -0.12422495551716        0.61201990484934
C           -0.28845663559278        1.30621509158050        0.37312413446214
C            1.02824083452466        0.92882891967639        0.25548511285532
N            2.03506431829051        1.83524439072056        0.59105046573692
C            2.17804577145516        3.10510022953579        0.07908567534777
C            1.42868037488229        3.75014630005623       -0.89720813665288
C            1.80186352959121        5.03387138236317       -1.25076190576736
C            2.89614409914744        5.66033950525448       -0.65782217990211
C            3.65728613265750        5.01499032963839        0.30234376298485
C            3.30162656210127        3.72819862486007        0.67443356952115
C            3.84936011405163        2.77441900644677        1.60510507549780
C            4.92559204495233        2.80112738501881        2.47808106115604
C            5.16003021601010        1.69252334532384        3.27303146652763
C            4.32462184298468        0.58050304559100        3.21848253356424
C            3.24434266051020        0.53317847809841        2.35523963542295
C            3.02926633801599        1.62627857815476        1.52883728933276
N            2.96361246718193       -2.11984868691247       -0.50702238577361
C            3.58581530338847       -4.83645408427676       -0.53944091523900
C            3.90461760337395       -6.17845081811807       -0.61643428750546
H            5.44214096495324       -7.61945738680552       -0.99932247877445
H            7.17296086713630       -5.91730079376225       -1.44084481765132
H            6.59948678507720       -3.51175913457481       -1.30344118584926
H            4.56234896396439        2.29355610125425       -1.40565602932359
H            6.31864435651479        4.02391168657844       -1.57848266103856
H            8.67909073252786        3.42505916377973       -1.16615184814471
H            9.28003043009872        1.10182073906633       -0.59665178798484
H            7.50905878000405       -0.62471727021990       -0.43393809258239
H            0.54495844692049       -2.28534063353236       -0.72783188315255
H           -0.58133409762588       -3.25052100604863        1.36535548106644
H           -1.22830978289299       -5.54823623639886        2.00265378093797
H           -3.14780472854255       -6.65300412340147        0.95609726528283
H           -4.50071390268539       -5.48854506113630       -0.75716437126508
H           -5.55269572980444       -3.65863921207788       -2.54387252033531
H           -5.98243148132168       -1.68057412065953       -3.96433323795067
H           -4.50753347872852        0.27281735203376       -3.87065433072515
H           -2.58509401586357        0.34099497598791       -2.32429485327229
H           -6.59177841734924        3.52131875383329        1.29976627372695
H           -7.16616744204805        5.92664340084864        1.43685631692135
H           -5.43582003447190        7.62939893978124        0.99576630396117
H           -3.13899952465633        6.93324706515469        0.42113049127059
H           -2.57944341332780        4.52600071684694        0.28401804516566
H           -7.50084116346620        0.63549492344268        0.43379319412338
H           -9.27190414495987       -1.09087303561336        0.59708582553238
H           -8.67064975146209       -3.41477055392897        1.16360418381872
H           -6.30979838817670       -4.01438589188982        1.57250688823275
H           -4.55347141277544       -2.28410858323495        1.39946981317624
H           -0.53630986546721        2.29594412007097        0.72576173349940
H            0.58770159776351        3.26200728441128       -1.36601293306201
H            1.23419149496311        5.55972955733379       -2.00361705989815
H            3.15559656298823        6.66374846194979       -0.95976444512031
H            4.51086940126862        5.49851045589737        0.75107125238990
H            5.56512943954438        3.66800612437452        2.53570575870943
H            5.99653709615275        1.68962439230142        3.95517959392638
H            4.52056785867149       -0.26310089903161        3.86394928894622
H            2.59555927869555       -0.33039651692856        2.32079499152295
H            2.58709168373755       -4.51507777503153       -0.28656620547474
H            3.14572795782699       -6.92251228756811       -0.42399598602984
