106
 energy: -171.435504847662 gnorm: 0.000053738275 xtb: 6.7.1 (edcfbbe)
C            5.76353913767783       -5.66045929778881        2.44679928842851
C            6.66877690657889       -4.85668782116805        1.76990357920741
C            6.23892095525433       -3.69978422495535        1.14914845418484
C            4.89329098436343       -3.33616168412671        1.20263115073882
C            4.43658801467343       -2.11241139393976        0.54775702359616
N            5.34382220493330       -1.33609873104169       -0.03708846658914
C            4.87764110391482       -0.27410446527005       -0.68716108888585
C            5.82935160441209        0.61151352935069       -1.35126634437261
C            5.37060576899127        1.64210790114458       -2.17100724028615
C            6.27164955573218        2.49698965626379       -2.77526958310227
C            7.63264082688817        2.33587076618724       -2.56368713349498
C            8.09425812580644        1.31313220917504       -1.74850617395705
C            7.19908267748970        0.45125040557051       -1.14508349589591
N            3.58666113198628        0.04877656203582       -0.74806147238349
C            2.77163204512140       -0.71887971217942       -0.04135129114011
C            1.35556009392534       -0.33186068700739        0.03755047599084
C            0.38825958027262       -1.32611384724576        0.07687958077553
C           -0.96600401051884       -1.01677043796219        0.07254361360000
N           -1.90986110180967       -2.04586349554155        0.12025180065302
C           -2.98411072657019       -2.11783477114036        0.98583866473652
C           -3.27503253270336       -1.33602517308132        2.09427469138491
C           -4.42383263877972       -1.62659637156346        2.80602461264394
C           -5.25785810485537       -2.68037488510065        2.43801891954681
C           -4.95200378518681       -3.48535137188898        1.35842234928533
C           -3.80408447633864       -3.21044107381150        0.62692614392308
C           -3.18823259951790       -3.82333240439084       -0.51822685260243
C           -3.52308596161895       -4.90994547277749       -1.31590862744983
C           -2.70533866265370       -5.22360062610395       -2.38394141958391
C           -1.57352499915974       -4.46265784466927       -2.66790699572896
C           -1.21913657036188       -3.37764296006167       -1.88694961701754
C           -2.02574937190278       -3.07166344728921       -0.80120941499582
C           -1.35586013618389        0.33103002841757        0.04171010111157
C           -2.77195260378512        0.71868005829109       -0.03326353481021
N           -3.58890919834278       -0.04765519736067       -0.73917770657708
C           -4.87952583693887        0.27610724069742       -0.67566970707928
C           -5.83300993985234       -0.60771948886650       -1.33960832318325
C           -5.37639145956937       -1.63737680701129       -2.16170580773749
C           -6.27908956310370       -2.49053368112760       -2.76593412982445
C           -7.63961445319739       -2.32858143221375       -2.55200847920117
C           -8.09911550304630       -1.30675838346519       -1.73448751263782
C           -7.20228115960084       -0.44661863308480       -1.13104694365493
N           -5.34380559323106        1.33741916901293       -0.02315200213963
C           -4.43499529532227        2.11223623798101        0.56125482341509
C           -4.89002200459429        3.33506163272555        1.21904918088764
C           -6.23584885739632        3.69853834265994        1.16948254121377
C           -6.66442499169249        4.85431690970250        1.79319639356571
C           -5.75767569103311        5.65714705339601        2.46918074685028
C           -4.41811279485034        5.30189042674154        2.52103671920187
C           -3.98270241431164        4.14712454536418        1.89976967882750
N           -3.13229846212293        1.82705503922548        0.60012886302840
C           -0.38841821554920        1.32513780815023        0.08265206417133
C            0.96578739106480        1.01580329466251        0.07422031781852
N            1.90998838525188        2.04451879142923        0.12348332282310
C            2.02450585259690        3.07317299188610       -0.79495044401417
C            1.21532103796638        3.38349713079933       -1.87753702941023
C            1.56857813647776        4.47088459807341       -2.65570417095815
C            2.70190763966241        5.22976106802232       -2.37223069528511
C            3.52212765194517        4.91183282647391       -1.30736189728722
C            3.18824200276371        3.82301506288188       -0.51229276164714
C            3.80612601431028        3.20618601018139        0.62964536581705
C            4.95549344405531        3.47836231568487        1.35989006105411
C            5.26284813204161        2.67008231420810        2.43659490522336
C            4.42904815853710        1.61553096563304        2.80289181746463
C            3.27880383271444        1.32764818295936        2.09238148484703
C            2.98616960159777        2.11303438324637        0.98693038414736
N            3.13384319955632       -1.82787280981240        0.58981629025672
C            3.98750980874599       -4.14910088190159        1.88436347670636
C            4.42419572516113       -5.30497443108707        2.50264939184116
H            6.10178537521237       -6.56428973395200        2.93111513887481
H            7.71121285360421       -5.13442653236766        1.72636023630328
H            6.92713715185940       -3.06326962347848        0.61537157384447
H            4.30829494055345        1.75694773508246       -2.32029394370229
H            5.91120067430817        3.29237460390264       -3.40986531029957
H            8.33460087281280        3.00810598500453       -3.03426054300363
H            9.15417199437142        1.18944062114269       -1.58348234326653
H            7.53813876456052       -0.34712772325692       -0.50355025026318
H            0.70469652048150       -2.35795977591135        0.10190652317538
H           -2.63014615841486       -0.51961072221330        2.39044279489777
H           -4.67797623878478       -1.02234843441985        3.66499050660802
H           -6.15052730077339       -2.87008653127960        3.01469793564974
H           -5.59123223999982       -4.31018815298618        1.08389314379182
H           -4.40828032810695       -5.48947711145049       -1.10404130284095
H           -2.94615454401927       -6.06536308310218       -3.01547860986524
H           -0.95918604271234       -4.72231243378096       -3.51739873857595
H           -0.34736468238180       -2.78471433823052       -2.12214886596059
H           -4.31441241694595       -1.75283952066015       -2.31284443111888
H           -5.92029355224288       -3.28523071126933       -3.40232739358348
H           -8.34287008554826       -2.99947240415466       -3.02256613000934
H           -9.15867315628869       -1.18237866945813       -1.56770346603049
H           -7.53965331901658        0.35104723914724       -0.48773791571260
H           -6.92524947901607        3.06273006309953        0.63639518508493
H           -7.70702910165242        5.13188891709848        1.75267302789154
H           -6.09490102660572        6.56010410612717        2.95583070581558
H           -3.71220163731990        5.92697242522381        3.04728082729996
H           -2.94450660233347        3.85417898067662        1.93257702534301
H           -0.70485054118741        2.35686093492970        0.11215898077196
H            0.34241713206300        2.79210451435776       -2.11242747478109
H            0.95208897457226        4.73409982571434       -3.50253936410437
H            2.94187608948803        6.07342574656496       -3.00155237312528
H            4.40838742482590        5.48986620249663       -1.09585686679293
H            5.59462608868065        4.30371013418961        1.08667687701768
H            6.15654785041898        2.85775981257393        3.01234248198591
H            4.68447163409987        1.00857615349233        3.65956496949796
H            2.63404981041524        0.51069060801295        2.38732234397356
H            2.94948043707381       -3.85592559478899        1.92025685257436
H            3.71945984716399       -5.93072602427687        3.02967427674531
