  106
       -171.30293928
 C          5.1397399526       -6.6803169577       -0.2193837832
 C          6.1445912730       -5.7483430273       -0.4278519502
 C          5.8442682220       -4.4006575046       -0.4638985440
 C          4.5284727630       -3.9744201836       -0.2914974166
 C          4.2093208717       -2.5476459749       -0.3341266203
 N          5.2300684374       -1.6858893977       -0.4471814828
 C          4.8961158538       -0.4025777237       -0.5643660503
 C          5.9542978780        0.5971890165       -0.6909274048
 C          5.6726833767        1.8459618371       -1.2380452130
 C          6.6589429946        2.8104876499       -1.3005016981
 C          7.9280899308        2.5382333889       -0.8148132292
 C          8.2145646960        1.2926670549       -0.2780122226
 C          7.2341893034        0.3212203675       -0.2189277841
 N          3.6519713405        0.0288332359       -0.5381285043
 C          2.6846919114       -0.8749013151       -0.3026873780
 C          1.3447309742       -0.4316556335       -0.0913005552
 C          0.2795704396       -1.3349378261       -0.2342331315
 C         -1.0325010489       -0.9332374224       -0.1634615126
 N         -2.0516664660       -1.8588311192       -0.4019642166
 C         -2.2287398280       -3.0459868081        0.2702035558
 C         -1.4770446531       -3.5948742085        1.3012691402
 C         -1.8926017975       -4.8038684924        1.8262851243
 C         -3.0302165391       -5.4509428040        1.3481605314
 C         -3.7920528498       -4.9002614774        0.3327452999
 C         -3.3942030954       -3.6895509596       -0.2117841329
 C         -3.9365946701       -2.8356593661       -1.2354108992
 C         -5.0571924363       -2.9122553949       -2.0477970696
 C         -5.2870507174       -1.8924478656       -2.9528270763
 C         -4.4016315488       -0.8248570441       -3.0709032823
 C         -3.2762055870       -0.7297870029       -2.2736578776
 C         -3.0682299408       -1.7255725890       -1.3304438832
 C         -1.3447443443        0.4337441941        0.1092631009
 C         -2.6858846347        0.8780872629        0.3117823521
 N         -2.9453049448        2.1961936256        0.2344132511
 C         -4.2127777456        2.5485424817        0.3142267075
 C         -4.5316839857        3.9747837919        0.2541906031
 C         -5.8483368073        4.4040388952        0.4110195906
 C         -6.1467855440        5.7517128971        0.3581290367
 C         -5.1393172679        6.6805001324        0.1481017576
 C         -3.8280805291        6.2580939529       -0.0093530574
 C         -3.5220741273        4.9124968881        0.0432204846
 N         -5.2334887252        1.6862801318        0.4251824563
 C         -4.8984987830        0.4051659696        0.5599908434
 C         -5.9531709113       -0.5983601046        0.6863655196
 C         -7.2258276903       -0.3413361473        0.1853243545
 C         -8.1987621909       -1.3205096560        0.2417464434
 C         -7.9125294423       -2.5541203572        0.8055418447
 C         -6.6510653312       -2.8069159823        1.3208048690
 C         -5.6717961640       -1.8352424012        1.2600897430
 N         -3.6532511024       -0.0242625726        0.5499115071
 C         -0.2798332618        1.3365508789        0.2547527168
 C          1.0323524939        0.9347981897        0.1845478723
 N          2.0509243944        1.8601405992        0.4252412759
 C          2.2235056679        3.0520324640       -0.2398230346
 C          1.4685704139        3.6055468027       -1.2661049889
 C          1.8802159672        4.8187227104       -1.7844704539
 C          3.0172522824        5.4655957871       -1.3046388198
 C          3.7825098665        4.9103445911       -0.2943320956
 C          3.3886566380        3.6952839233        0.2434626603
 C          3.9358273972        2.8359017831        1.2599429249
 C          5.0591483418        2.9092947050        2.0689554396
 C          5.2940670388        1.8839865850        2.9663335413
 C          4.4108515902        0.8140727126        3.0806431082
 C          3.2829534582        0.7220679701        2.2866655313
 C          3.0702444931        1.7233324667        1.3502709357
 N          2.9433035708       -2.1940809038       -0.2392933876
 C          3.5215204872       -4.9152305081       -0.0824578446
 C          3.8294672713       -6.2610016486       -0.0467687189
 H          5.3777633780       -7.7337856380       -0.1916027444
 H          7.1649126229       -6.0768368114       -0.5628861870
 H          6.6123171742       -3.6608335937       -0.6285379555
 H          4.6814277372        2.0414010692       -1.6184818919
 H          6.4360752548        3.7779167815       -1.7264006706
 H          8.6968605722        3.2962711124       -0.8575054994
 H          9.2058403590        1.0818249101        0.0961573630
 H          7.4359664412       -0.6525396202        0.2005412723
 H          0.5203646987       -2.3570867928       -0.4855146305
 H         -0.6024664194       -3.0906673242        1.6829327228
 H         -1.3258277874       -5.2556058943        2.6267413549
 H         -3.3223187139       -6.3944617997        1.7848550581
 H         -4.6795205876       -5.3972614907       -0.0285221943
 H         -5.7363358941       -3.7473454799       -1.9683324033
 H         -6.1611919553       -1.9254235335       -3.5855938694
 H         -4.5976448584       -0.0529056896       -3.8002120515
 H         -2.5921191932        0.1002788110       -2.3713210578
 H         -6.6187983158        3.6669693318        0.5768129795
 H         -7.1678124141        6.0826415523        0.4814097068
 H         -5.3758603206        7.7338666843        0.1070840691
 H         -3.0437875519        6.9828805475       -0.1727311031
 H         -2.5071764412        4.5671113557       -0.0784881010
 H         -7.4276498717        0.6231885962       -0.2549464042
 H         -9.1839894981       -1.1252885625       -0.1561736989
 H         -8.6755603978       -3.3180643694        0.8462276281
 H         -6.4284513732       -3.7647653619        1.7679335048
 H         -4.6861024453       -2.0159054958        1.6617494903
 H         -0.5208141905        2.3584383537        0.5069280196
 H          0.5946446783        3.1016237976       -1.6496304568
 H          1.3107901340        5.2739283167       -2.5810693000
 H          3.3061945864        6.4124934810       -1.7360618471
 H          4.6696388549        5.4071069045        0.0681195539
 H          5.7363518595        3.7462631284        1.9926569510
 H          6.1705215830        1.9140860526        3.5960327885
 H          4.6108699779        0.0378845636        3.8043534508
 H          2.6003891775       -0.1095632232        2.3815376449
 H          2.5072985777       -4.5722824573        0.0516927748
 H          3.0473751877       -6.9884378888        0.1157614311
