  50
        -79.23616447
 C          5.2800017002        2.7982240341        1.1542223969
 C          3.9281308592        3.0507362036        1.3688917756
 C          2.9592023095        2.1133129470        1.0411877752
 C          3.3774931607        0.9189890808        0.4766589861
 C          4.7549770279        0.6375458562        0.2948098038
 C          5.7077980252        1.5914087105        0.6299640603
 C          4.8372694755       -0.6980905690       -0.2207626447
 C          5.8969986427       -1.5035188043       -0.6185932659
 C          5.6190575467       -2.7604593310       -1.1258118773
 C          4.3078564074       -3.2087868898       -1.2589900060
 C          3.2341083732       -2.4213255574       -0.8693571395
 C          3.5064415680       -1.1763493992       -0.3253007007
 N          2.6325033219       -0.1874184360        0.0980929986
 C          1.2534276843       -0.2818516580        0.1314558326
 C          0.6530763909       -1.4731790438        0.6409890161
 C         -0.7174852323       -1.5945664412        0.7094510968
 C         -1.5094737918       -0.5539178596        0.2493329734
 C         -0.9056385907        0.6786564518       -0.2856479017
 C          0.4727966391        0.7820449971       -0.3166670533
 C         -1.9753644079        1.5457321256       -0.6867390304
 C         -2.2515284123        2.8088905364       -1.2406008806
 C         -3.5981014683        3.1694329045       -1.4090487592
 C         -4.6986754168        2.3891331767       -1.0763874457
 C         -4.4588684394        1.1123941481       -0.5148763230
 C         -5.1164279856       -0.0647496967       -0.0036915353
 C         -6.4467216550       -0.4309237412        0.1437793122
 C         -6.7530969327       -1.6697846564        0.6838957558
 C         -5.7545462418       -2.5588469309        1.0831533492
 C         -4.4136298124       -2.2292092218        0.9502007355
 C         -4.0916857284       -0.9971301102        0.4136229746
 N         -2.8625728407       -0.4147896365        0.1717289347
 C         -3.1152312995        0.8200650054       -0.3750872644
 H          6.0056273327        3.5535113666        1.4167318062
 H          3.6255048904        3.9906445305        1.8042684029
 H          1.9170566082        2.3098826925        1.2389741080
 H          6.7580462044        1.3882405150        0.4895693336
 H          6.9129520395       -1.1486799898       -0.5404026919
 H          6.4302932681       -3.4018413575       -1.4378008158
 H          4.1202418715       -4.1846044861       -1.6802057422
 H          2.2215893580       -2.7668241450       -1.0066917966
 H          1.2900422967       -2.2426832165        1.0444439288
 H         -1.1641112514       -2.4835095347        1.1283940813
 H          0.9430091537        1.6547186488       -0.7438335355
 H         -1.4683095459        3.4888346767       -1.5353394754
 H         -3.7924370924        4.1427834059       -1.8396408557
 H         -5.6987349215        2.7555664123       -1.2448185898
 H         -7.2316555421        0.2450315590       -0.1607027690
 H         -7.7876411177       -1.9573052169        0.7997313340
 H         -6.0286511056       -3.5156611405        1.4999939896
 H         -3.6431158316       -2.9195264543        1.2592802883
  50
        -79.23576678
 C          5.4346949683        2.6058021211       -1.7356548743
 C          4.0992488200        2.8790664556       -2.0175938605
 C          3.0836919122        2.0553924045       -1.5555979503
 C          3.4415732094        0.9414384370       -0.8131508437
 C          4.7961072079        0.6731611928       -0.4942127496
 C          5.7964997658        1.5117645911       -0.9689767989
 C          4.7958218650       -0.4897093764        0.3464455615
 C          5.8032341217       -1.2421339297        0.9364952970
 C          5.4494922837       -2.3591024588        1.6729954748
 C          4.1174348825       -2.7388263754        1.8120133334
 C          3.0942560823       -2.0021966842        1.2333064934
 C          3.4397820121       -0.8671372932        0.5176700315
 N          2.6327099142        0.0029641648       -0.1948410788
 C          1.2518811337       -0.0456533450       -0.2891404249
 C          0.6550878496        0.0802758159       -1.5794649871
 C         -0.7144125147        0.0469292379       -1.7244757969
 C         -1.5052318297       -0.0667926945       -0.5921543846
 C         -0.9046280350       -0.1891356553        0.7480399881
 C          0.4758349395       -0.2031191964        0.8553834132
 C         -1.9769367249       -0.2310628448        1.6987895404
 C         -2.2583775458       -0.3059818239        3.0757496634
 C         -3.6059230312       -0.2793332333        3.4716086092
 C         -4.7031593140       -0.1866901541        2.6248096821
 C         -4.4589309214       -0.1143843571        1.2317197909
 C         -5.1115644471        0.0039419568       -0.0484430854
 C         -6.4391867119        0.0890521469       -0.4437666232
 C         -6.7398605448        0.1956558829       -1.7925544542
 C         -5.7388218509        0.2188331570       -2.7638117370
 C         -4.3999640975        0.1408247787       -2.4073410630
 C         -4.0840908712        0.0368003185       -1.0665341349
 N         -2.8582751950       -0.0575302330       -0.4361367792
 C         -3.1150155804       -0.1493700527        0.9098903987
 H          6.1987742744        3.2696854407       -2.1117291789
 H          3.8464825041        3.7521511696       -2.5995604010
 H          2.0491013746        2.2884704118       -1.7543370455
 H          6.8316035722        1.3176253229       -0.7336920505
 H          6.8384198591       -0.9637710057        0.8120940447
 H          6.2192769462       -2.9563014835        2.1386936588
 H          3.8746916263       -3.6263495270        2.3760575027
 H          2.0662234090       -2.3159465672        1.3281382983
 H          1.2975758110        0.1309570052       -2.4430873098
 H         -1.1601661051        0.1067501351       -2.7056354167
 H          0.9480125790       -0.2623201385        1.8245417627
 H         -1.4783481639       -0.3713558931        3.8172499812
 H         -3.8030501572       -0.3308776133        4.5342608579
 H         -5.7036134563       -0.1676912153        3.0263018410
 H         -7.2268536996        0.0704181414        0.2946617375
 H         -7.7724950481        0.2590529861       -2.1027308197
 H         -6.0083186916        0.2985342012       -3.8056301617
 H         -3.6270261133        0.1602268813       -3.1611901578
  50
        -79.23532754
 C          5.0720555581        2.7212304254        1.5005344703
 C          3.7000809014        2.9481853746        1.5557619604
 C          2.7970567783        2.0273678562        1.0451590247
 C          3.3044588586        0.8757281043        0.4655076278
 C          4.6981211804        0.6207163484        0.4362507598
 C          5.5839667733        1.5580816853        0.9525928258
 C          4.8654235573       -0.6806007503       -0.1446879699
 C          5.9767714612       -1.4531237175       -0.4559836176
 C          5.7796830648       -2.6823368716       -1.0604620147
 C          4.5008536064       -3.1360879326       -1.3719804571
 C          3.3762332760       -2.3833790510       -1.0681040590
 C          3.5647920516       -1.1668773234       -0.4314963064
 N          2.6306257497       -0.2157685177       -0.0605903598
 C          1.2535749886       -0.3490135580       -0.1093537133
 C          0.6605310982       -1.5535884270        0.3763111033
 C         -0.7087884460       -1.6621178670        0.4846139976
 C         -1.5034319176       -0.6085355058        0.0602864468
 C         -0.9076036238        0.6031862194       -0.5297191662
 C          0.4714879868        0.7072417152       -0.5688084532
 C         -1.9812944525        1.4797511223       -0.8953046927
 C         -2.2635962305        2.7419628453       -1.4494567548
 C         -3.6085578468        3.1415008037       -1.5169358828
 C         -4.7002712641        2.4067103269       -1.0724374420
 C         -4.4540585203        1.1318821926       -0.5069427870
 C         -5.0990840735        0.0045530793        0.1188379440
 C         -6.4167525343       -0.2878870800        0.4414208355
 C         -6.7087659972       -1.4794598383        1.0861379170
 C         -5.7092137689       -2.3954920748        1.4145442337
 C         -4.3809097696       -2.1405745403        1.1045028692
 C         -4.0731492211       -0.9546275931        0.4662904568
 N         -2.8546438621       -0.4355039945        0.0724081229
 C         -3.1149253465        0.7897715452       -0.4918583238
 H          5.7453533659        3.4607135034        1.9077327125
 H          3.3282802649        3.8534042309        2.0108052394
 H          1.7347046866        2.2006236010        1.1181363048
 H          6.6471184816        1.3739897942        0.9356881955
 H          6.9711360637       -1.0956904536       -0.2366827398
 H          6.6320151705       -3.2973913596       -1.3080954629
 H          4.3812180549       -4.0891321134       -1.8641900522
 H          2.3898446483       -2.7307659608       -1.3339542312
 H          1.3025154811       -2.3354502350        0.7467860715
 H         -1.1513188709       -2.5490952741        0.9118629115
 H          0.9416846866        1.5832342975       -0.9897822610
 H         -1.4865436370        3.3937165138       -1.8154863397
 H         -3.8076184920        4.1129341059       -1.9498235288
 H         -5.6983875489        2.8055547301       -1.1571179043
 H         -7.2023770135        0.4120426598        0.1986333842
 H         -7.7327766578       -1.7063947356        1.3439797003
 H         -5.9715410677       -3.3129757576        1.9182834591
 H         -3.6086531135       -2.8498762882        1.3625278850
