  50
        -79.23616447
 C          5.2800017002        2.7982240341        1.1542223969
 C          3.9281308592        3.0507362036        1.3688917756
 C          2.9592023095        2.1133129470        1.0411877752
 C          3.3774931607        0.9189890808        0.4766589861
 C          4.7549770279        0.6375458562        0.2948098038
 C          5.7077980252        1.5914087105        0.6299640603
 C          4.8372694755       -0.6980905690       -0.2207626447
 C          5.8969986427       -1.5035188043       -0.6185932659
 C          5.6190575467       -2.7604593310       -1.1258118773
 C          4.3078564074       -3.2087868898       -1.2589900060
 C          3.2341083732       -2.4213255574       -0.8693571395
 C          3.5064415680       -1.1763493992       -0.3253007007
 N          2.6325033219       -0.1874184360        0.0980929986
 C          1.2534276843       -0.2818516580        0.1314558326
 C          0.6530763909       -1.4731790438        0.6409890161
 C         -0.7174852323       -1.5945664412        0.7094510968
 C         -1.5094737918       -0.5539178596        0.2493329734
 C         -0.9056385907        0.6786564518       -0.2856479017
 C          0.4727966391        0.7820449971       -0.3166670533
 C         -1.9753644079        1.5457321256       -0.6867390304
 C         -2.2515284123        2.8088905364       -1.2406008806
 C         -3.5981014683        3.1694329045       -1.4090487592
 C         -4.6986754168        2.3891331767       -1.0763874457
 C         -4.4588684394        1.1123941481       -0.5148763230
 C         -5.1164279856       -0.0647496967       -0.0036915353
 C         -6.4467216550       -0.4309237412        0.1437793122
 C         -6.7530969327       -1.6697846564        0.6838957558
 C         -5.7545462418       -2.5588469309        1.0831533492
 C         -4.4136298124       -2.2292092218        0.9502007355
 C         -4.0916857284       -0.9971301102        0.4136229746
 N         -2.8625728407       -0.4147896365        0.1717289347
 C         -3.1152312995        0.8200650054       -0.3750872644
 H          6.0056273327        3.5535113666        1.4167318062
 H          3.6255048904        3.9906445305        1.8042684029
 H          1.9170566082        2.3098826925        1.2389741080
 H          6.7580462044        1.3882405150        0.4895693336
 H          6.9129520395       -1.1486799898       -0.5404026919
 H          6.4302932681       -3.4018413575       -1.4378008158
 H          4.1202418715       -4.1846044861       -1.6802057422
 H          2.2215893580       -2.7668241450       -1.0066917966
 H          1.2900422967       -2.2426832165        1.0444439288
 H         -1.1641112514       -2.4835095347        1.1283940813
 H          0.9430091537        1.6547186488       -0.7438335355
 H         -1.4683095459        3.4888346767       -1.5353394754
 H         -3.7924370924        4.1427834059       -1.8396408557
 H         -5.6987349215        2.7555664123       -1.2448185898
 H         -7.2316555421        0.2450315590       -0.1607027690
 H         -7.7876411177       -1.9573052169        0.7997313340
 H         -6.0286511056       -3.5156611405        1.4999939896
 H         -3.6431158316       -2.9195264543        1.2592802883
