85
 energy: -133.042063207379 gnorm: 0.000061113117 xtb: 6.7.1 (edcfbbe)
C            5.66796435941972        3.65345295013935        0.45830272443356
C            5.02544048229040        2.99574891997558       -0.57821649541473
C            5.17191172294067        1.63053448342783       -0.73459252152142
C            5.95775329647215        0.91332605462159        0.16255134602493
N            6.11394119810817       -0.47322543759512        0.00840937439448
C            5.13244921064623       -1.42127154776835       -0.20704754779819
C            3.70636247837693       -1.14530147598174       -0.14249965936483
C            2.84691573882068       -1.86766117011247       -0.96975989151653
C            1.48750700154990       -1.64065684391431       -0.93552813558414
C            0.94618177880527       -0.68863947506242       -0.07268324238566
C           -0.50080076411821       -0.43111409240097       -0.04782683457210
C           -0.97965500544422        0.86902099778731        0.07774459076523
C           -2.34707351153887        1.11903937618030        0.08742320643264
N           -2.81640980713182        2.43345061357194        0.20110500507083
C           -2.39182850584346        3.50928919244063       -0.55467414741007
C           -1.48474856562334        3.55076196817190       -1.60384023318281
C           -1.25837466273524        4.77031053836668       -2.21293066137204
C           -1.92131864802419        5.92411384146786       -1.80102635784905
C           -2.84365036089268        5.88409848898192       -0.77465968379168
C           -3.08773325502621        4.67007881721727       -0.14639747169231
C           -3.96900126751958        4.26668127525655        0.91347941885732
C           -4.87508745909345        4.95079271114332        1.71300312177397
C           -5.56241041497598        4.24911060872326        2.68291125536818
C           -5.34371760720432        2.88626386868912        2.87061124695351
C           -4.44758878885154        2.18394821656787        2.08758580854240
C           -3.77231036151447        2.87855326706043        1.09438887644940
C           -3.24863572439253        0.06502672063406       -0.00649230840872
C           -2.77515524011315       -1.23757242626162       -0.11843739281269
N           -3.67783461361278       -2.30409043886100       -0.20337334405716
C           -4.76060691516455       -2.38558001202645       -1.05811668076636
C           -5.17943392178711       -1.50265400523607       -2.04290607013030
C           -6.29396527805013       -1.84500348173530       -2.78468446148275
C           -6.97604001921437       -3.03943105068479       -2.56478248430595
C           -6.54915573874244       -3.93345465882082       -1.60343339688093
C           -5.43146245258727       -3.61149017223388       -0.84506067251990
C           -4.71521905458059       -4.29442812933661        0.19589342511956
C           -4.89854888432640       -5.51023664498510        0.84119353279267
C           -4.01699462755559       -5.86743476998760        1.84167662943185
C           -2.97276018084047       -5.02275727448122        2.21101004212122
C           -2.77005745104463       -3.80819674995481        1.58388147189517
C           -3.63809255584042       -3.45512578496770        0.56078099837825
C           -1.40684067680072       -1.48156602211777       -0.15055636979643
C            1.80603782353570        0.01140103226935        0.77153669239458
C            3.16670500995608       -0.21478357260294        0.74409485447745
N            5.61902169583423       -2.61106789291278       -0.43309895319981
C            6.97856699217851       -2.48591579739295       -0.37225990944756
C            7.97905922154374       -3.43698973605067       -0.54254964057245
C            9.28693926212442       -3.01394016858290       -0.44281994944276
C            9.60849090366593       -1.67838262700550       -0.19014306570357
C            8.63232671112418       -0.71807403634179       -0.01556890263337
C            7.31487215193571       -1.13969910391982       -0.09411669445296
C            6.60271250216950        1.57207692653729        1.20368412583684
C            6.45710959864953        2.94036965870745        1.34487879214915
H            5.55393370930385        4.72053531483458        0.57422908337349
H            4.41251353272945        3.54962602279561       -1.27330212609862
H            4.68106324610013        1.11256026840053       -1.54518867857899
H            3.26986739667108       -2.60219331707119       -1.63692569019747
H            0.83721200716424       -2.18921848915328       -1.60073651145154
H           -0.28950400944302        1.69421423808175        0.16262191643917
H           -0.97880391829130        2.65970687598861       -1.94425688869535
H           -0.55421921630175        4.82883457608572       -3.02990943505820
H           -1.71463303659424        6.85853681100568       -2.30122298763869
H           -3.37030086821281        6.77447145893145       -0.46603387081283
H           -5.03142233389407        6.01038503754343        1.57789465718700
H           -6.27342881182555        4.76121120442368        3.31390915777143
H           -5.88395804699288        2.36663713784895        3.64813367258002
H           -4.27282941338415        1.13201122697295        2.25612121617498
H           -4.31025148266580        0.25640157795553        0.00867389740859
H           -4.64804661732118       -0.58291703793845       -2.23622728750663
H           -6.64146688208937       -1.17223599709436       -3.55483057670981
H           -7.84462431661477       -3.26904329287360       -3.16381556621927
H           -7.06711489104150       -4.86705688085365       -1.44374608627030
H           -5.71773985870112       -6.15695515586723        0.56540064506477
H           -4.13983204236999       -6.80974171360899        2.35443990530596
H           -2.30772473530720       -5.32168613711925        3.00774642814307
H           -1.96764706245730       -3.15433466049965        1.89098401434657
H           -1.05141406696068       -2.49555087567737       -0.24842256487202
H            1.40076223050904        0.72304129321892        1.47576782463583
H            3.80753631531358        0.32039550887953        1.42905093887260
H            7.72556115749654       -4.46404072095771       -0.74974874994373
H           10.08820247739899       -3.72695285798772       -0.56933733077271
H           10.64771350655478       -1.39041710570164       -0.13183957562328
H            8.88569629006876        0.31577582927501        0.16685762069136
H            7.20116074600661        1.00691527888100        1.90281230649797
H            6.95798817520154        3.44938065265979        2.15483728232497
