  85
       -132.95096826
 C          5.9604688351        3.9451699906        0.0885836423
 C          5.3179213944        3.1524943046       -0.8499176023
 C          5.3768357463        1.7760924038       -0.7581828595
 C          6.0754585534        1.1798525224        0.2915488282
 N          6.1596344649       -0.2151172870        0.3766613340
 C          5.1307427595       -1.1574780968        0.2130355272
 C          3.7575518320       -0.9166873276        0.2704304952
 C          2.8680897890       -1.9734894036       -0.1117233716
 C          1.5243933031       -1.7984912903       -0.1287271541
 C          0.9214310097       -0.5577645387        0.2367764902
 C         -0.4894656370       -0.3474528521        0.1520541854
 C         -1.0385092525        0.9544173533        0.0918885031
 C         -2.3987148050        1.1573588789       -0.0233484772
 N         -2.9015913923        2.4638483236       -0.1377229860
 C         -2.4724010801        3.4120679686       -1.0434659955
 C         -1.4970816735        3.3185398357       -2.0268961276
 C         -1.2771152040        4.4258207846       -2.8237598642
 C         -2.0109620916        5.5983442478       -2.6592437445
 C         -2.9988423280        5.6896655600       -1.6976202504
 C         -3.2378323686        4.5910603210       -0.8842350772
 C         -4.1715892585        4.3304379113        0.1764671439
 C         -5.1572273872        5.0896361981        0.7909302808
 C         -5.8799459827        4.5249644052        1.8244581375
 C         -5.6178053364        3.2272161298        2.2572625354
 C         -4.6404233598        2.4535120892        1.6618094983
 C         -3.9292809274        3.0044095767        0.6052997921
 C         -3.2834977836        0.0770315238       -0.0644175167
 C         -2.7607133553       -1.2165622796        0.0150231957
 N         -3.6310072501       -2.3161698680       -0.0442468306
 C         -3.5036888426       -3.3899717456       -0.9013141778
 C         -2.5566888595       -3.6249425928       -1.8887087848
 C         -2.6743956163       -4.7839580531       -2.6318575346
 C         -3.7105433910       -5.6880582942       -2.4097163193
 C         -4.6697821805       -5.4478705154       -1.4443923713
 C         -4.5728777116       -4.2903857726       -0.6854092115
 C         -5.3785624720       -3.7222652458        0.3605622084
 C         -6.5321120890       -4.1362315792        1.0107163793
 C         -7.0494712676       -3.3385731781        2.0138159503
 C         -6.4215041701       -2.1509605266        2.3812448435
 C         -5.2706222292       -1.7201972156        1.7498244563
 C         -4.7604542862       -2.5026886665        0.7237525457
 C         -1.4008356677       -1.4266612574        0.1205106580
 C          1.8060401599        0.4613518062        0.6969165797
 C          3.1528646195        0.2972012332        0.7238559551
 N          5.6387158429       -2.4047650908        0.0752502046
 C          6.9606145656       -2.2966286031        0.2044837077
 C          7.9550965802       -3.2883373871        0.1574368043
 C          9.2653625695       -2.8898348071        0.2731553030
 C          9.6154237319       -1.5429299551        0.4262365649
 C          8.6558608943       -0.5401133375        0.4837572414
 C          7.3345297611       -0.9247341718        0.3920855092
 C          6.7208939913        1.9763541862        1.2336319890
 C          6.6612578177        3.3535060816        1.1267700700
 H          5.9140823140        5.0207908154        0.0111359995
 H          4.7738475817        3.6099820496       -1.6627151492
 H          4.8844812315        1.1518614107       -1.4889738643
 H          3.3181359115       -2.9048822704       -0.4152325664
 H          0.8984262993       -2.6081123729       -0.4707528701
 H         -0.3894760899        1.8148626739        0.1117572188
 H         -0.9350178815        2.4086831136       -2.1734552033
 H         -0.5214945765        4.3794601343       -3.5939232398
 H         -1.8079384745        6.4424717238       -3.3012077735
 H         -3.5777572300        6.5932461188       -1.5806701377
 H         -5.3492507480        6.1015991430        0.4678937464
 H         -6.6531610777        5.0981299332        2.3137143658
 H         -6.1876223151        2.8186312223        3.0785893091
 H         -4.4278922194        1.4574010350        2.0175848234
 H         -4.3407289375        0.2361417928       -0.2032239680
 H         -1.7610531182       -2.9207475281       -2.0794888098
 H         -1.9484274509       -4.9917961329       -3.4037995345
 H         -3.7661148496       -6.5843087924       -3.0092273707
 H         -5.4813080912       -6.1413000687       -1.2836906230
 H         -7.0103352712       -5.0649172673        0.7385395802
 H         -7.9480747325       -3.6418343156        2.5299006399
 H         -6.8401623165       -1.5565806870        3.1797475757
 H         -4.7768456140       -0.8111440239        2.0557995386
 H         -1.0433322945       -2.4379488121        0.2272021625
 H          1.3901243090        1.3772967264        1.0887235648
 H          3.7730322016        1.0754326216        1.1404172817
 H          7.6777858534       -4.3219097949        0.0315031953
 H         10.0523676991       -3.6289677298        0.2410362923
 H         10.6588610574       -1.2757044751        0.4993555661
 H          8.9402528170        0.4962760265        0.5859790866
 H          7.2473108434        1.5110142944        2.0536930180
 H          7.1591664621        3.9675484152        1.8625471100
