  78
       -129.99285333
 C          0.9956991521       -6.5396891013        0.1265901932
 N         -0.0210584532       -5.5276454867        0.0667207323
 C         -1.3735705078       -5.6911738921        0.0132954928
 N         -2.0456830380       -4.5815623610       -0.0368920142
 C         -1.1012914663       -3.5874605903       -0.0183709553
 C         -1.1266614675       -2.1857754271       -0.0415295013
 C         -2.3460700850       -1.3864443457       -0.0803121518
 C         -3.5965640808       -1.9930481683       -0.2065736932
 C         -4.7409093999       -1.2235990585       -0.2376323751
 C         -4.6599150538        0.1635445022       -0.1371793494
 N         -5.8332881197        0.9456638987       -0.1629036310
 C         -6.8078348743        0.7941446615        0.8253000276
 C         -6.6425763374       -0.0638418940        1.9056964429
 C         -7.6303021106       -0.1897320859        2.8707202959
 C         -8.7936640994        0.5467639884        2.7800042484
 C         -8.9597707234        1.4330857785        1.7257615106
 C         -7.9772192189        1.5643798755        0.7624164801
 O         -8.2000243447        2.4864968023       -0.2302074976
 C         -7.2259699879        2.6326351826       -1.1869446470
 C         -7.4631891026        3.5609519072       -2.1832092830
 C         -6.5424279505        3.7437197824       -3.2046987760
 C         -5.3951697107        2.9774313965       -3.2294347921
 C         -5.1512021012        2.0462692820       -2.2312465559
 C         -6.0471581928        1.8741329664       -1.1833058778
 C         -3.4130601195        0.7723521474       -0.0075393918
 C         -2.2695141118        0.0040251982        0.0177218564
 N          0.0378007524       -1.5435225935       -0.0177662783
 C          1.1918324421       -2.2049731114        0.0379153290
 C          2.4153962434       -1.4024721286        0.0583228627
 C          2.3640284617       -0.0329370656       -0.1963643487
 C          3.5157519615        0.7250824373       -0.1788739262
 C          4.7419134994        0.1279033539        0.1048624556
 N          5.9196041026        0.9047195944        0.1375847710
 C          6.0698396094        1.9259757663        1.0782870134
 C          5.0992763896        2.2072038346        2.0317036342
 C          5.2811184664        3.2292639927        2.9511293109
 C          6.4392975924        3.9791052947        2.9422274902
 C          7.4322050398        3.6899155685        2.0174428272
 C          7.2564088230        2.6717856127        1.0994065609
 O          8.2976052201        2.4262701738        0.2382190207
 C          8.1359404554        1.4150578128       -0.6764754382
 C          9.1859168002        1.1840291417       -1.5450942390
 C          9.0870305716        0.1998153099       -2.5179169709
 C          7.9237851463       -0.5345559231       -2.6249234750
 C          6.8678025821       -0.3076699571       -1.7551778516
 C          6.9633647903        0.6510985327       -0.7542018427
 C          4.7980604379       -1.2403535453        0.3600389350
 C          3.6459500163       -1.9975961611        0.3316806575
 N          1.3330849052       -3.5309632729        0.0795597448
 C          0.1834822082       -4.1810674435        0.0468129576
 H          1.9628768594       -6.0396985174        0.1141704022
 H          0.9194664527       -7.2084138007       -0.7326013852
 H          0.9004434971       -7.1246835453        1.0435525277
 H         -1.8286422325       -6.6631399095        0.0127460365
 H         -3.6568717173       -3.0670131199       -0.2847547706
 H         -5.7093594252       -1.6896493003       -0.3446934557
 H         -5.7314715712       -0.6330004080        1.9984863618
 H         -7.4762190685       -0.8678208310        3.6960005636
 H         -9.5673243545        0.4488097999        3.5250016667
 H         -9.8473164915        2.0387666961        1.6356543179
 H         -8.3797763837        4.1276053736       -2.1450449561
 H         -6.7352467056        4.4722105514       -3.9762136657
 H         -4.6787100545        3.0925946753       -4.0282097058
 H         -4.2592116072        1.4418840915       -2.2731940863
 H         -3.3547786930        1.8473973079        0.0808682198
 H         -1.2986148342        0.4603704858        0.1263269546
 H          1.4100942603        0.4176194970       -0.4185731506
 H          3.4787975839        1.7842532327       -0.3880328244
 H          4.1963206630        1.6184086156        2.0621683353
 H          4.5066040528        3.4291046878        3.6755920732
 H          6.5837825253        4.7783181284        3.6518204707
 H          8.3577493573        4.2427181770        1.9955437284
 H         10.0726964476        1.7895433411       -1.4467303123
 H          9.9130171013        0.0245802145       -3.1889737034
 H          7.8232760842       -1.2894241006       -3.3896212534
 H          5.9577980109       -0.8767619563       -1.8612413388
 H          5.7503072344       -1.6980129331        0.5856262393
 H          3.6787272642       -3.0567032620        0.5326088748
