  70
       -106.67852172
 C          0.5911071342       -4.6401893628       -0.8787985957
 C         -0.5959719083       -3.9400317374       -0.7666555698
 C         -0.5874188276       -2.5986882723       -0.3903694082
 C         -1.8435088702       -1.8486260780       -0.2497455494
 C         -2.8774505876       -2.0040136665       -1.1707620527
 C         -4.0529766082       -1.2917015808       -1.0447271776
 C         -4.2285292738       -0.4145783256        0.0221548189
 N         -5.4183523320        0.3116738042        0.1555988255
 C         -5.5098519157        1.6745424673        0.3569054039
 C         -4.5038272796        2.6280462253        0.4224434930
 C         -4.8751319021        3.9465874801        0.6026599082
 C         -6.2137803575        4.3177935810        0.7083611943
 C         -7.2200864504        3.3770096161        0.6199815080
 C         -6.8718903272        2.0451177129        0.4377836884
 C         -7.6328537749        0.8376332842        0.2800888430
 C         -8.9932593605        0.5591927825        0.2821196025
 C         -9.4009422071       -0.7492250646        0.1166821536
 C         -8.4707154079       -1.7755301589       -0.0330203370
 C         -7.1121342387       -1.5237531563       -0.0367517325
 C         -6.6965299363       -0.2073016773        0.1038338524
 C         -3.2057346198       -0.2620762069        0.9546325168
 C         -2.0269552536       -0.9649871969        0.8122325614
 C          0.6324347357       -1.9786168701       -0.1422405632
 C          1.8308836280       -2.6740826916       -0.2546416522
 C          3.1095972483       -1.9991329004        0.0106043187
 C          4.1127108628       -2.6293201979        0.7505588831
 C          5.2948071382       -1.9799485377        1.0024417323
 C          5.5485877841       -0.6847101926        0.5284918211
 C          6.7944667533        0.0011542614        0.8136880404
 C          7.7612630397       -0.5564626394        1.6625096601
 C          8.9461774954        0.0847916852        1.9323786815
 C          9.2042177240        1.3219635327        1.3562043891
 C          8.2674215623        1.8966833117        0.5310298527
 C          7.0496772338        1.2657650331        0.2403250886
 C          6.0506930853        1.8928584994       -0.6069098013
 C          6.2830898144        3.1311286188       -1.2221486295
 C          5.3268592451        3.7515717164       -1.9897729754
 C          4.0886458260        3.1475348210       -2.1649467031
 C          3.8412538028        1.9250195007       -1.5879285800
 C          4.8041760641        1.2631009608       -0.8132783858
 C          4.5540467589       -0.0512143700       -0.2475560479
 C          3.3505227451       -0.7277994233       -0.4750314711
 C          1.7984959276       -4.0173977384       -0.6216449339
 H          0.5748418949       -5.6811660301       -1.1672346905
 H         -1.5364476853       -4.4389694838       -0.9482067056
 H         -2.7459721020       -2.6682388084       -2.0122640157
 H         -4.8356923933       -1.3964189135       -1.7811760292
 H         -3.4645215952        2.3532886752        0.3232902515
 H         -4.1101535736        4.7070244321        0.6585293618
 H         -6.4627006378        5.3587292939        0.8512215135
 H         -8.2580972364        3.6662407280        0.6852655265
 H         -9.7130108198        1.3528556232        0.4145696758
 H        -10.4542093137       -0.9869040522        0.1115895780
 H         -8.8192158734       -2.7915800992       -0.1452917180
 H         -6.3992758885       -2.3286515120       -0.1344818699
 H         -3.3486624504        0.3977234244        1.7973509081
 H         -1.2471171717       -0.8509591348        1.5507664408
 H          0.6500387827       -0.9372374649        0.1448279769
 H          3.9471247658       -3.6222665531        1.1420585008
 H          6.0421541578       -2.5018016689        1.5775183824
 H          7.5831205486       -1.5092645781        2.1337587986
 H          9.6705066606       -0.3699951979        2.5919664835
 H         10.1325080647        1.8344694504        1.5610342463
 H          8.4904914607        2.8640904567        0.1119923847
 H          7.2335630089        3.6249315245       -1.1039415838
 H          5.5371372005        4.7053120078       -2.4507360394
 H          3.3255491613        3.6314592327       -2.7563511985
 H          2.8736324543        1.4786488100       -1.7489092885
 H          2.5777520171       -0.2718634018       -1.0716904264
 H          2.7232687380       -4.5657792870       -0.7243791499
