70
 energy: -106.621785934911 gnorm: 0.000043570424 xtb: 6.7.1 (edcfbbe)
C            0.65926766181638       -4.76875162732426       -0.36362262141197
C           -0.54273830116520       -4.07056799480685       -0.33221008490275
C           -0.52986357426626       -2.67948279710226       -0.13285598627223
C           -1.78949607126018       -1.92447968457491       -0.09041531038468
C           -2.82451231840030       -2.21367860863268       -0.98022464778762
C           -4.00322265173489       -1.49663534450356       -0.95711774770569
C           -4.18205024676079       -0.47457448719710       -0.02763615562970
N           -5.37981002829178        0.25416540333264        0.00333308327738
C           -5.48631368605774        1.63029998538769       -0.00496521277524
C           -4.48984417266674        2.59338996475591       -0.09261017542025
C           -4.87497628714419        3.92081374735986       -0.10956151120846
C           -6.21735901221540        4.28921154369478       -0.05076308222828
C           -7.21501193703229        3.33443561972308        0.01261520799262
C           -6.85293503170990        1.99458181491085        0.03133742860365
C           -7.60068061909896        0.76693822433723        0.06828051635104
C           -8.95635263151574        0.47464254441532        0.12612445324129
C           -9.34676511820366       -0.85072946873629        0.16897005436098
C           -8.40370268752110       -1.87635357709844        0.17049343522074
C           -7.04844824345344       -1.61027273419613        0.11424857823581
C           -6.65095030950944       -0.28160455670766        0.04579307938658
C           -3.15914065604532       -0.18322267812168        0.87223894785903
C           -1.97895749707659       -0.89681915279913        0.83421403193844
C            0.67657125421291       -2.02908025227832        0.02270779182074
C            1.91650333601452       -2.71222557204458       -0.00468844797077
C            3.15770403311971       -2.03372395544091        0.14885657041048
C            4.35527095807658       -2.72239500877312        0.52437254354330
C            5.54122479662197       -2.08307522471818        0.62151440265523
C            5.68858058221427       -0.68086756498916        0.32790753372941
C            6.93164206787704       -0.05692277174989        0.17845816453357
C            8.16073463918806       -0.78174236270845        0.25891009751001
C            9.36392711535096       -0.18901004981658        0.01845542079883
C            9.42251690683922        1.16930282883376       -0.32408079610661
C            8.25728404937317        1.90986787647495       -0.38287405868297
C            7.00902662593221        1.35277699954265       -0.12151006123900
C            5.79541997619411        2.14467455320007       -0.11829536450116
C            5.82813713565865        3.54322290205713       -0.20294512452943
C            4.67439602694593        4.30305377058911       -0.16583736830356
C            3.44826885866810        3.68132810915593       -0.01879371849400
C            3.39099279088956        2.30092751219243        0.07762592632953
C            4.53861823580664        1.51099860998258        0.00883950778667
C            4.46490356830694        0.05782853775759        0.11185225403658
C            3.28117988218213       -0.61980700429069       -0.01283280153403
C            1.85886807374829       -4.12151228913849       -0.20323295306032
H            0.64650731672871       -5.83843660576239       -0.52122012321758
H           -1.48028154632133       -4.59470791727073       -0.43404531457694
H           -2.68956416681771       -2.98929512846924       -1.71940985641082
H           -4.78481598711567       -1.70948038397262       -1.67139689572798
H           -3.44833837833464        2.31720876764031       -0.15623967188575
H           -4.11853651206729        4.68926549380838       -0.17400137793111
H           -6.47848389170851        5.33719972887150       -0.06420988495270
H           -8.25540628064362        3.62145432083693        0.04153646288882
H           -9.68802185529885        1.26846860998306        0.14086546465996
H          -10.39711260954814       -1.09901790195990        0.21071806618059
H           -8.73863546125513       -2.90212119312148        0.22015959054329
H           -6.32478811469779       -2.41093065502780        0.13361442293082
H           -3.30401561088339        0.59080263358835        1.61136158264550
H           -1.20193235316029       -0.67518502030611        1.55094008093877
H            0.66406053240366       -0.96265805442814        0.18223653405395
H            4.30164894060905       -3.76945624802295        0.78064988150438
H            6.40567583965586       -2.64316051948819        0.94093803338499
H            8.13833525834956       -1.83219134633329        0.49899893102655
H           10.27647227896182       -0.76488756018600        0.07918864658351
H           10.37293575692513        1.63382225334432       -0.53943697126384
H            8.33699184513822        2.95113492320410       -0.65337073656649
H            6.77178068718193        4.05795389078154       -0.28521610442582
H            4.73700837891104        5.37932752158692       -0.23760296497332
H            2.53982916633209        4.26372271610614        0.03042723025436
H            2.42721847825615        1.84025652940138        0.22678451209987
H            2.39663953116421       -0.07269370537920       -0.29170238265518
H            2.77388621160072       -4.68822239361928       -0.26957306943040
