70
 energy: -106.621723626098 gnorm: 0.000033345127 xtb: 6.7.1 (edcfbbe)
C            0.54315563921618       -4.81107117657640       -0.66187288963310
C           -0.63113928561070       -4.07236186795212       -0.56785499972273
C           -0.56158750237527       -2.68642362771117       -0.34953020958017
C           -1.79370518775222       -1.89608243875168       -0.21854199496036
C           -2.87839210543517       -2.11935546162287       -1.06665297813326
C           -4.03376145158399       -1.37333014090442       -0.95325859840868
C           -4.13907310389528       -0.39233439915459        0.03021018689181
N           -5.31532173746335        0.36092659204858        0.15510655402062
C           -5.38962012423551        1.73803848942075        0.21390815592868
C           -4.37587261202466        2.68295815147080        0.12645094634959
C           -4.73070741517862        4.01765594524255        0.18530884007608
C           -6.06053158574275        4.41148982189459        0.31835294847925
C           -7.07623550266639        3.47609946830687        0.38336137123683
C           -6.74460343881064        2.12948672777057        0.32676448941469
C           -7.51869093109390        0.91793131912119        0.34257379539043
C           -8.87718387170895        0.65289075311262        0.44768273501539
C           -9.29652590529267       -0.66429949508856        0.45033773416722
C           -8.37870094907592       -1.70908734127703        0.36486525809980
C           -7.02124591977356       -1.47015756398840        0.25991429987622
C           -6.59574150980076       -0.14869332381302        0.23108077543023
C           -3.06532536878581       -0.16726362922913        0.88873675493996
C           -1.90743056692465       -0.90633776463690        0.75795977362315
C            0.67215453591489       -2.07724069652350       -0.25070994088385
C            1.88412000334418       -2.80280841731290       -0.34937197907923
C            3.14766687281018       -2.15603887331589       -0.24311105577413
C            4.34523776979562       -2.86601023161541        0.08943093824528
C            5.51440895230665       -2.22140185914180        0.29710113991150
C            5.64100349866400       -0.79265629865056        0.16848790996167
C            6.76621367968486       -0.08006630200301        0.59381676855070
C            7.86414329972932       -0.70940992008681        1.25859664765205
C            8.89907270139339        0.00987123672032        1.77699817116182
C            8.90709804153300        1.40832868297135        1.67269765953070
C            7.88341059464059        2.04902980241873        0.99970017136355
C            6.82550702861345        1.35253940491810        0.42501084925018
C            5.80189515385599        2.01352126189850       -0.35959257298265
C            5.94046865860051        3.34333420524437       -0.77722860922376
C            4.97744782347189        3.96757327033618       -1.54813401207383
C            3.85414720667292        3.26534574580408       -1.94366327640738
C            3.70470229141466        1.94264957818348       -1.55968772228788
C            4.64930855822025        1.30090700788495       -0.75916027039040
C            4.49243315957520       -0.09579396140050       -0.36942950629902
C            3.30145122262467       -0.75890476704110       -0.49334023249523
C            1.77072254514286       -4.20647028674595       -0.55257797951007
H            0.48636041634631       -5.87786920642881       -0.82864502910899
H           -1.59026997424127       -4.56257096413924       -0.63193950432762
H           -2.80165131093449       -2.86569247933330       -1.84347279932684
H           -4.85477643551704       -1.53267535583327       -1.63648126600727
H           -3.34449955010604        2.38845193606857        0.00577110772421
H           -3.95994522081277        4.77186800937804        0.12249447749210
H           -6.29773329154202        5.46430775456098        0.36234196127035
H           -8.10756485534160        3.78320405519031        0.47100293472331
H           -9.58845992827194        1.46096314043891        0.53012237641295
H          -10.34952843590305       -0.89154854412836        0.52860983894927
H           -8.73512629610715       -2.72856638498356        0.38551804695735
H           -6.31643778088363       -2.28627194099678        0.21224801706066
H           -3.15340639478820        0.57403165452548        1.66913151791546
H           -1.08827092659195       -0.73669315666850        1.44124796432062
H            0.70819808781006       -1.01419895665015       -0.06944935139083
H            4.30521854079731       -3.93558162997688        0.22650643272414
H            6.38300408108870       -2.79921959611676        0.56982189463641
H            7.86588356071649       -1.78097772903061        1.37471866176742
H            9.71117717261860       -0.49253207309281        2.28323661697844
H            9.71052495192170        1.98026857179062        2.11171127266264
H            7.91578351185894        3.12574599920808        0.93708396022310
H            6.82360119691544        3.90282371412230       -0.51326926904201
H            5.11413786079507        4.99593207485949       -1.85015966311812
H            3.10158792250179        3.73586232401994       -2.55951142736790
H            2.84028278795740        1.40252821534513       -1.91318883882997
H            2.43577780904126       -0.22147682366825       -0.84342861715110
H            2.66161258131857       -4.80364234933904       -0.66490863912199
