70
 energy: -106.722026749257 gnorm: 0.000065547439 xtb: 6.7.1 (edcfbbe)
C            0.72981197982930        2.25843253305493       -3.28908466439265
C           -0.53880304525536        1.97082016255436       -2.81915263521164
C           -0.71007652354841        1.08412577120930       -1.75806624442733
C           -2.05440282212793        0.78146691484405       -1.24200057941602
C           -3.11766035692702        0.55353735861900       -2.11333199739718
C           -4.38144877786160        0.27377918423617       -1.63244397674795
C           -4.60955445326251        0.21404493749592       -0.26054908196910
N           -5.89441147560827       -0.06403815453979        0.23266366731283
C           -6.58166233594205        0.68960701365290        1.16279414155091
C           -6.21391353402708        1.87365963192139        1.78705760937235
C           -7.11104352892421        2.44378154456442        2.66991031525577
C           -8.35074746539915        1.86059254116234        2.92617611906286
C           -8.73143511887022        0.69486318622775        2.29163279916290
C           -7.84655875743070        0.10223752357420        1.39947692542924
C           -7.91429143928977       -1.06732846801125        0.56865998327598
C           -8.87865756523508       -2.04814888053872        0.37398020968851
C           -8.60992262893145       -3.07531469814400       -0.50876768799213
C           -7.39148364358287       -3.14062128046714       -1.18244629504875
C           -6.41651833552986       -2.17756065300162       -1.00543287085243
C           -6.68987109653790       -1.12967292945663       -0.13698544639516
C           -3.55306720489496        0.43634377619288        0.61804506709210
C           -2.29258586519086        0.71766369233797        0.12952103984858
C            0.41187859820805        0.48904703017860       -1.19123852724794
C            1.69100802724629        0.76730190946399       -1.66119418639953
C            2.86246019770937        0.11667932556974       -1.05411043572170
C            2.84062050868290       -1.24432971133436       -0.73868609953297
C            3.94230089889104       -1.84071116665115       -0.17882846331480
C            5.11516426042427       -1.12501739430809        0.10425378141960
C            6.27650938366229       -1.76535850336867        0.69368781519799
C            6.29381837397991       -3.13952261573471        0.97514781240322
C            7.38932600587278       -3.75312200991904        1.53385881347727
C            8.51995197091231       -3.00227549019031        1.83047007107302
C            8.53064554613206       -1.65431970670510        1.56119654551235
C            7.42679715009345       -1.00241608067187        0.99246409875311
C            7.44931677250250        0.42118449498193        0.70241667046174
C            8.56746556706148        1.21342641275470        1.00139982783448
C            8.60390336729763        2.55757603420769        0.71622795031088
C            7.50864452997348        3.16090533604945        0.11118667766450
C            6.39694092125073        2.40905045193523       -0.18572666239502
C            6.33059061989848        1.03762112446689        0.10024078272917
C            5.14416195897017        0.25372122363264       -0.19944743732061
C            4.01067220450474        0.83564759814754       -0.77946120452815
C            1.84008519182483        1.66474920749681       -2.71656324064690
H            0.85410757421320        2.95079725631042       -4.10952924722682
H           -1.40012892471056        2.45021636107515       -3.26074663424665
H           -2.94923132626086        0.58534207542237       -3.17980963988473
H           -5.20162254312507        0.11138566263940       -2.31621314429008
H           -5.26243303018772        2.34159428451997        1.58351456138535
H           -6.84687718708353        3.36406614288896        3.17063289224458
H           -9.02335931236781        2.33598100092989        3.62521028900143
H           -9.69824246842816        0.25161421038367        2.47905826816396
H           -9.81679900014093       -2.00625165049395        0.90730539703891
H           -9.34787520014892       -3.84641868765179       -0.67592796652294
H           -7.20397639014127       -3.96439494058056       -1.85600924050799
H           -5.46960766189739       -2.24550888595385       -1.51968711506166
H           -3.72462687701816        0.37883253130267        1.68284355610881
H           -1.48326673503816        0.90272113666712        0.82056825524136
H            0.28791344787077       -0.20325922995727       -0.37103548436617
H            1.96046701649685       -1.83195224377686       -0.95555910201227
H            3.88328073440958       -2.89365360434976        0.04330825010656
H            5.43409179207398       -3.74952635082603        0.75091623651173
H            7.37081767891193       -4.81387686702482        1.73797554858404
H            9.38781792606150       -3.47399716674904        2.26812838902658
H            9.42470617873113       -1.10103129649632        1.79787493948994
H            9.43283013095164        0.77478312863524        1.47061310337648
H            9.48075468189049        3.13963645440935        0.96028477381250
H            7.52765965745518        4.21562175890734       -0.12205279899202
H            5.56227414828227        2.90748323405648       -0.65096043644491
H            4.00105414688307        1.88878749561994       -1.00775393977040
H            2.82631048174968        1.87889701263597       -3.10189969768394
