  57
        -95.34658020
 O          3.4353754023       -2.5487607155       -0.1471696454
 C          3.9760783631       -1.4188823437       -0.0669788105
 C          5.4030142152       -1.2964566322        0.1847865989
 C          6.1027201425       -2.4772752933        0.5197130277
 C          7.4316509901       -2.4356516427        0.8589431122
 C          8.1278003451       -1.2279939275        0.8793352252
 C          7.4691077344       -0.0625887466        0.5257137993
 C          6.1351503809       -0.1097677998        0.1780041657
 S          5.3964104440        1.3922336625       -0.4362826537
 O          5.8418030002        2.5217044573        0.3384545583
 O          5.6166625468        1.4540645824       -1.8594199080
 C          3.6675607843        1.0990598099       -0.1428626638
 C          2.8317411204        2.1939313457       -0.0572974011
 C          1.4629582871        2.0197844683       -0.0052130271
 C          0.9236734097        0.7196074262       -0.0608959345
 C         -0.5236264828        0.5061875117       -0.0298298186
 C         -1.3536222690        1.3014494736        0.7655600537
 C         -2.7160039164        1.1074837154        0.7885542861
 C         -3.3016176765        0.1052874550        0.0078779110
 N         -4.6805323965       -0.0883548276        0.0223198845
 C         -5.5412418091        1.0045548055        0.1678667367
 C         -5.2438959273        2.2237573851       -0.4434548063
 C         -6.0972347172        3.2991689384       -0.2948635236
 C         -7.2554443091        3.1773788102        0.4566455234
 C         -7.5563232711        1.9676846277        1.0628217490
 C         -6.7085556560        0.8866921229        0.9243141444
 C         -5.2113212464       -1.3763855660       -0.1011943746
 C         -4.5715843291       -2.4646106336        0.4950594756
 C         -5.1029081909       -3.7330089147        0.3712259719
 C         -6.2750932052       -3.9364843339       -0.3401968971
 C         -6.9144542313       -2.8587004963       -0.9325803001
 C         -6.3901140438       -1.5863789139       -0.8189870982
 C         -2.4764695013       -0.6976265710       -0.7871682128
 C         -1.1148426466       -0.5011416902       -0.7989596375
 C          1.7748544733       -0.3669338301       -0.1220269442
 C          3.1753673169       -0.2115380048       -0.1253120300
 H          5.5435962767       -3.4011670184        0.5082545824
 H          7.9421378832       -3.3518611233        1.1182217482
 H          9.1708681693       -1.1990127229        1.1525641295
 H          7.9708562268        0.8922273356        0.5047385568
 H          3.2781703305        3.1760740022       -0.0583561156
 H          0.8098415039        2.8771735691        0.0245063043
 H         -0.9171247912        2.0608974482        1.3960186244
 H         -3.3401361891        1.7164731247        1.4259231064
 H         -4.3503292071        2.3138888325       -1.0429558377
 H         -5.8606619333        4.2359399678       -0.7761751456
 H         -7.9200791939        4.0198667033        0.5691118853
 H         -8.4534596556        1.8677185684        1.6547759128
 H         -6.9349738114       -0.0513753007        1.4091357128
 H         -3.6678719049       -2.3039276744        1.0639074915
 H         -4.6030586543       -4.5665431974        0.8407875579
 H         -6.6880140652       -4.9290196624       -0.4323396520
 H         -7.8239114348       -3.0109133032       -1.4939319377
 H         -6.8803532691       -0.7491470417       -1.2934416334
 H         -2.9200249225       -1.4598199704       -1.4105683378
 H         -0.4956293830       -1.1111689011       -1.4380107222
 H          1.3974007440       -1.3790870900       -0.1209532098
  57
        -95.34648751
 O          3.3286017440        2.5343338446       -0.4559271139
 C          3.9061098160        1.4420143211       -0.2367856507
 C          5.3280051562        1.2886725591       -0.4990025996
 C          5.9742062582        2.3383385321       -1.1890151520
 C          7.2907473343        2.2299059085       -1.5602454830
 C          8.0261934756        1.0833736807       -1.2631856092
 C          7.4212217257        0.0554895184       -0.5599254704
 C          6.0997644094        0.1714931850       -0.1818863545
 S          5.4309912701       -1.1020112331        0.8717516844
 O          5.9051615794       -2.3965294887        0.4546571711
 O          5.6795156790       -0.7304567634        2.2423821720
 C          3.6879714876       -0.9615178815        0.5511172384
 C          2.8901487232       -2.0627428615        0.7873963495
 C          1.5154657191       -1.9538946665        0.7095143826
 C          0.9327610011       -0.7071810433        0.4106204272
 C         -0.5185475786       -0.5496532902        0.3131323906
 C         -1.3153853683       -1.5395488583       -0.2687492595
 C         -2.6756600849       -1.3729978387       -0.3987420898
 C         -3.2917271761       -0.2029349550        0.0580233382
 N         -4.6623898278       -0.0138634211       -0.0936045277
 C         -5.1658589034        1.2693699979       -0.3367517639
 C         -6.3719775382        1.6730019894        0.2378956209
 C         -6.8642476240        2.9401884651       -0.0048246464
 C         -6.1661107585        3.8205017406       -0.8166218250
 C         -4.9684151552        3.4232256535       -1.3902085178
 C         -4.4683354899        2.1574536970       -1.1574263831
 C         -5.5414820238       -1.0986603797       -0.0224020072
 C         -5.3174006334       -2.1323084882        0.8886977866
 C         -6.1906875831       -3.2000024842        0.9526666448
 C         -7.2963462468       -3.2536259917        0.1184331940
 C         -7.5245896492       -2.2279105672       -0.7854717320
 C         -6.6563281049       -1.1570122747       -0.8606523343
 C         -2.5022931452        0.7830379769        0.6605151603
 C         -1.1426239988        0.6124415544        0.7776366828
 C          1.7457630521        0.3814041888        0.1596282957
 C          3.1503003144        0.2766380820        0.1791066010
 H          5.3846569339        3.2132327625       -1.4197229516
 H          7.7602506137        3.0431214444       -2.0945272128
 H          9.0589644438        1.0000983835       -1.5631282895
 H          7.9553313600       -0.8412547530       -0.2873278931
 H          3.3708397783       -2.9910889153        1.0539290487
 H          0.8914320497       -2.8062449063        0.9259653736
 H         -0.8522172111       -2.4344053724       -0.6553728915
 H         -3.2721206339       -2.1348250671       -0.8787198573
 H         -6.9077272331        0.9923110200        0.8829259292
 H         -7.7942710733        3.2456694895        0.4502344789
 H         -6.5532996085        4.8104803690       -1.0013073749
 H         -4.4234204211        4.1005520431       -2.0299441321
 H         -3.5437783911        1.8421063295       -1.6175864962
 H         -4.4655382023       -2.0818055056        1.5504797528
 H         -6.0118075958       -3.9914632246        1.6645966660
 H         -7.9763820253       -4.0895158151        0.1728024632
 H         -8.3799131411       -2.2662662900       -1.4429621959
 H         -6.8251029094       -0.3659077997       -1.5762133954
 H         -2.9723973278        1.6750727584        1.0472025190
 H         -0.5504638427        1.3737417503        1.2611206547
 H          1.3321798723        1.3409193288       -0.1144009334
  57
        -95.34638170
 O          3.4360739747       -0.8172373150       -2.4175910610
 C          3.9782493941       -0.4475438800       -1.3474127230
 C          5.4120720355       -0.5929245915       -1.1560772688
 C          6.1234273129       -1.3130626493       -2.1420442139
 C          7.4643194040       -1.5660913226       -1.9992482476
 C          8.1617119061       -1.1186242656       -0.8782256449
 C          7.4902469576       -0.3880812372        0.0873301874
 C          6.1438336725       -0.1287915664       -0.0638645004
 S          5.3898287330        0.9643967522        1.1260773255
 O          5.8376840116        0.6406828102        2.4560508725
 O          5.5980702753        2.3216352777        0.6866181569
 C          3.6638522727        0.5723885024        0.9557929181
 C          2.8246636337        0.9095611861        1.9984656250
 C          1.4567873978        0.7849767087        1.8579082723
 C          0.9201357726        0.3259226627        0.6389298973
 C         -0.5266055579        0.1998258540        0.4559866038
 C         -1.3528468154       -0.2061197210        1.5082928891
 C         -2.7147773821       -0.3147067657        1.3431204963
 C         -3.3046549351       -0.0158923364        0.1103093594
 N         -4.6839254599       -0.1121062124       -0.0579945488
 C         -5.3540095740        0.7858966335       -0.8954163944
 C         -4.9615647714        2.1243866748       -0.9537961561
 C         -5.6274683725        3.0055595042       -1.7823995245
 C         -6.6910185420        2.5717741034       -2.5583490466
 C         -7.0859413720        1.2443575138       -2.5012539204
 C         -6.4251516876        0.3532983649       -1.6790047606
 C         -5.4062722110       -1.1038833929        0.6130085931
 C         -6.6800386595       -0.8304498077        1.1146049897
 C         -7.3903599004       -1.8137725629        1.7741784548
 C         -6.8457363234       -3.0767760052        1.9464674489
 C         -5.5810986074       -3.3525567365        1.4505190204
 C         -4.8628433042       -2.3781739664        0.7862139311
 C         -2.4839497010        0.3851794362       -0.9490576360
 C         -1.1223870609        0.4853170228       -0.7763789576
 C          1.7750950596       -0.0303182304       -0.3863428773
 C          3.1750790514        0.0507139458       -0.2476499502
 H          5.5636241722       -1.6596519038       -2.9980042149
 H          7.9838629488       -2.1234442748       -2.7651898208
 H          9.2146438813       -1.3247499791       -0.7671918772
 H          7.9907269876       -0.0026850181        0.9617661852
 H          3.2681954926        1.2922958580        2.9043454351
 H          0.8026485287        1.0874908359        2.6598778684
 H         -0.9154496285       -0.4467386934        2.4650742939
 H         -3.3396183495       -0.6139826989        2.1717384482
 H         -4.1434142030        2.4659615398       -0.3373228722
 H         -5.3192718038        4.0394881834       -1.8162469630
 H         -7.2087751337        3.2640383506       -3.2039248207
 H         -7.9093817934        0.8983738036       -3.1075498690
 H         -6.7222957057       -0.6844687546       -1.6469382452
 H         -7.0982868045        0.1578065181        0.9932767849
 H         -8.3720724399       -1.5901754927        2.1635997289
 H         -7.4039147727       -3.8417141542        2.4635868194
 H         -5.1540040813       -4.3361399439        1.5745753682
 H         -3.8845062580       -2.5976757738        0.3852556658
 H         -2.9261708338        0.6038286424       -1.9097270163
 H         -0.5063474859        0.8036207625       -1.6027975789
 H          1.4017061008       -0.4287251755       -1.3182817982
  57
        -95.34626379
 O          3.3872461818        1.9160733321        1.7793762853
 C          3.9506928920        1.0913286273        1.0177586831
 C          5.3809364736        0.8514771730        1.1171964228
 C          6.0615237728        1.4551278719        2.1986652900
 C          7.3967084731        1.2205767937        2.4099401073
 C          8.1188261727        0.3814740218        1.5627652019
 C          7.4780927586       -0.1994882022        0.4815860733
 C          6.1369662580        0.0434516832        0.2688566613
 S          5.4230350691       -0.6110636732       -1.2284073739
 O          5.6689930923        0.3257543944       -2.2968065766
 O          5.8693377020       -1.9635023511       -1.4415887185
 C          3.6820633865       -0.5926653220       -0.8624762567
 C          2.8592487389       -1.3851182459       -1.6364650974
 C          1.4878326086       -1.3186075394       -1.4879354618
 C          0.9304241321       -0.4207281050       -0.5569870279
 C         -0.5218238318       -0.3084826143       -0.4059321248
 C         -1.3702212780       -0.4261425529       -1.5107910448
 C         -2.7363617029       -0.3286000647       -1.3732320929
 C         -3.3065122403       -0.1095878140       -0.1155463099
 N         -4.6903929689       -0.0214199281        0.0298371424
 C         -5.2402714481        0.8675662952        0.9579839804
 C         -6.3824815706        0.5177799224        1.6806770022
 C         -6.9218935812        1.4020703992        2.5935899526
 C         -6.3343682130        2.6400300189        2.8028557363
 C         -5.1987009668        2.9905001502        2.0894424521
 C         -4.6521263533        2.1157508938        1.1716790715
 C         -5.5266331112       -0.8268296509       -0.7478438118
 C         -5.1499382697       -2.1334577397       -1.0655108483
 C         -5.9787121269       -2.9260148127       -1.8342529456
 C         -7.1909952255       -2.4351977036       -2.2935013748
 C         -7.5701570968       -1.1394745501       -1.9790440756
 C         -6.7477678425       -0.3362370369       -1.2142159587
 C         -2.4646204475        0.0161253930        0.9938868774
 C         -1.0997665788       -0.0814682677        0.8468353308
 C          1.7679848195        0.3605394790        0.2147287737
 C          3.1711146619        0.2876797056        0.0973889722
 H          5.4828978862        2.0946876031        2.8486138352
 H          7.8921611149        1.6902160393        3.2473870920
 H          9.1668898823        0.1943794127        1.7364036603
 H          7.9984877551       -0.8407699823       -0.2124436544
 H          3.3186286124       -2.0506999043       -2.3506363012
 H          0.8499786824       -1.9630990153       -2.0713889563
 H         -0.9470576481       -0.5644712291       -2.4937204635
 H         -3.3764692808       -0.4012041597       -2.2401822968
 H         -6.8306075119       -0.4531644459        1.5299075651
 H         -7.8018932436        1.1196550121        3.1514689066
 H         -6.7591535241        3.3274820740        3.5177631785
 H         -4.7400784415        3.9555456036        2.2422110680
 H         -3.7770827801        2.3952011013        0.6041234022
 H         -4.2135639179       -2.5215910120       -0.6931964615
 H         -5.6803342676       -3.9366192125       -2.0688918674
 H         -7.8364665731       -3.0588316947       -2.8922619614
 H         -8.5097562776       -0.7486122085       -2.3391022594
 H         -7.0362894010        0.6784935800       -0.9831817068
 H         -2.8962120766        0.1671031422        1.9723491029
 H         -0.4675930397       -0.0120942158        1.7182268231
 H          1.3779258685        1.0736397812        0.9260629534
  57
        -95.34622326
 O          3.3798766071       -0.8679699095       -2.4033832151
 C          3.9320133748       -0.4748181165       -1.3479756959
 C          5.3397235032       -0.7432488760       -1.1011465449
 C          5.9910900822       -1.6364718733       -1.9805370207
 C          7.2885075580       -2.0228534021       -1.7556178410
 C          7.9986939747       -1.5421890394       -0.6563257237
 C          7.3902844853       -0.6399573044        0.1998140507
 C          6.0891796012       -0.2469905745       -0.0350927713
 S          5.4190855316        1.0521834252        0.9851454392
 O          5.8589004543        0.8979649173        2.3476990984
 O          5.7010421949        2.3150335388        0.3499945238
 C          3.6744606801        0.7330459207        0.8685617686
 C          2.8590928964        1.1687022028        1.8932500841
 C          1.4862873683        1.0792754209        1.7722789934
 C          0.9239764640        0.5655229861        0.5878852778
 C         -0.5261855104        0.4360353643        0.4338786259
 C         -1.3219971510        0.0217311085        1.5055607230
 C         -2.6799228031       -0.1448077773        1.3577928497
 C         -3.2940008198        0.1101381674        0.1272642310
 N         -4.6666386557       -0.0804544886       -0.0264388225
 C         -5.4125916781        0.7794034350       -0.8362582410
 C         -5.1075644249        2.1410254332       -0.8865790952
 C         -5.8490590049        2.9876491337       -1.6863151858
 C         -6.9030795032        2.4964892807       -2.4408966612
 C         -7.2098112964        1.1455521044       -2.3936811371
 C         -6.4727861327        0.2886502247       -1.6007549506
 C         -5.2906364098       -1.1519492149        0.6201783730
 C         -6.5751013243       -1.0100099524        1.1476766752
 C         -7.1833922720       -2.0742327962        1.7834733462
 C         -6.5259412756       -3.2885042636        1.9049355222
 C         -5.2499525009       -3.4335196060        1.3832704301
 C         -4.6325382696       -2.3771746842        0.7437961114
 C         -2.5076388661        0.5458098428       -0.9435100040
 C         -1.1476042782        0.6951651838       -0.7909079204
 C          1.7535766045        0.1245072716       -0.4247922614
 C          3.1559998217        0.1525128136       -0.2951873407
 H          5.4212803110       -2.0058277684       -2.8202294773
 H          7.7620434364       -2.7144061087       -2.4373465347
 H          9.0151829940       -1.8564497585       -0.4789503947
 H          7.9072157163       -0.2201515428        1.0485004895
 H          3.3250492883        1.5938020884        2.7684771494
 H          0.8481596179        1.4477370184        2.5596022252
 H         -0.8615579249       -0.1850942980        2.4595323979
 H         -3.2833172592       -0.4642186728        2.1947847713
 H         -4.2974278071        2.5266179907       -0.2857218062
 H         -5.6081234437        4.0395651900       -1.7140090723
 H         -7.4805158507        3.1619425451       -3.0636722911
 H         -8.0232950177        0.7545004165       -2.9858011736
 H         -6.7014098963       -0.7665667661       -1.5777001782
 H         -7.0811959049       -0.0593430612        1.0668165519
 H         -8.1746984511       -1.9528645854        2.1932505588
 H         -7.0048880969       -4.1167799220        2.4036222282
 H         -4.7343332946       -4.3780350604        1.4682136141
 H         -3.6450695353       -2.4947454949        0.3227543474
 H         -2.9725392796        0.7418413602       -1.8984120745
 H         -0.5520823172        1.0256772950       -1.6276800307
 H          1.3541528628       -0.3146618765       -1.3271447267
  57
        -95.34617443
 O          3.2938814017        2.2092593940        1.3401697688
 C          3.8964990228        1.2608951972        0.7751612407
 C          5.3479374333        1.2169044252        0.7634860588
 C          6.0237775629        2.2667593520        1.4277897879
 C          7.3936327956        2.3068630415        1.4770158099
 C          8.1597499519        1.3108283179        0.8736680874
 C          7.5192341401        0.2753747926        0.2147728701
 C          6.1405855299        0.2387184731        0.1658278944
 S          5.4374061427       -1.1291427940       -0.7406036743
 O          5.7550199879       -0.9790031114       -2.1390021050
 O          5.8432186822       -2.3674540121       -0.1254786457
 C          3.6817957108       -0.9102619280       -0.5300818678
 C          2.8760797106       -1.8741494838       -1.1024127169
 C          1.5010557157       -1.7825131676       -1.0093068041
 C          0.9242792434       -0.6945727376       -0.3279778403
 C         -0.5293636011       -0.5456184222       -0.2337604859
 C         -1.3577783708       -0.8726534547       -1.3105432814
 C         -2.7219565579       -0.7034045060       -1.2354474257
 C         -3.3088451774       -0.2020515939       -0.0692296688
 N         -4.6865310693       -0.0091775559        0.0073329676
 C         -5.1998106510        1.0752579411        0.7261347930
 C         -6.3825868916        0.9411427169        1.4553706414
 C         -6.8845694362        2.0150708403        2.1635529359
 C         -6.2194349718        3.2312421694        2.1591976030
 C         -5.0448815647        3.3690038229        1.4360363622
 C         -4.5354583762        2.3033568973        0.7212575246
 C         -5.5570992126       -0.8816092105       -0.6523318146
 C         -5.2783420533       -2.2486540935       -0.7064135488
 C         -6.1387113779       -3.1051400700       -1.3640976266
 C         -7.2855050757       -2.6179139781       -1.9716265712
 C         -7.5684906894       -1.2621077062       -1.9166053054
 C         -6.7138605551       -0.3956458721       -1.2643540528
 C         -2.4869769215        0.1120877741        1.0182834368
 C         -1.1238787935       -0.0532917409        0.9318193540
 C          1.7428151132        0.2624838933        0.2373800014
 C          3.1488633071        0.1910750152        0.1468506957
 H          5.4114477163        3.0272220510        1.8897457261
 H          7.8828041081        3.1205489466        1.9926752851
 H          9.2370352102        1.3431354556        0.9160147091
 H          8.0684672236       -0.5164463466       -0.2701193626
 H          3.3531104260       -2.6974262464       -1.6110785812
 H          0.8764708056       -2.5535783409       -1.4312874235
 H         -0.9183507494       -1.2301931119       -2.2290383017
 H         -3.3453755816       -0.9326941569       -2.0870992120
 H         -6.8921325658       -0.0109470722        1.4719370279
 H         -7.7962127139        1.8993288311        2.7299894809
 H         -6.6140355743        4.0666800423        2.7163372521
 H         -4.5255484213        4.3151018629        1.4223014823
 H         -3.6293959959        2.4154151917        0.1447677973
 H         -4.3930291977       -2.6297702292       -0.2194605801
 H         -5.9168341107       -4.1610935231       -1.3958371031
 H         -7.9549684007       -3.2909262141       -2.4843760831
 H         -8.4562040872       -0.8747815612       -2.3933866398
 H         -6.9252755166        0.6630812460       -1.2364505644
 H         -2.9333929258        0.4715987792        1.9335854807
 H         -0.5055667507        0.1747768718        1.7859881476
 H          1.3344658326        1.1250472057        0.7436420641
  57
        -95.34605609
 O          3.3804346300       -1.6754766706        1.9161823116
 C          3.9433330550       -0.9239285651        1.0821842450
 C          5.3765691804       -1.0113421425        0.8576743906
 C          6.0617829473       -2.0781598922        1.4817771591
 C          7.4010206852       -2.2791298858        1.2622008357
 C          8.1226606260       -1.4349802471        0.4195503183
 C          7.4769062168       -0.3676312072       -0.1812389011
 C          6.1313632089       -0.1655364029        0.0458486717
 S          5.4057087190        1.3128980451       -0.6379208962
 O          5.6201399931        2.3964642742        0.2892034155
 O          5.8701404128        1.5162897059       -1.9857955204
 C          3.6702629189        0.9204318914       -0.6411603066
 C          2.8464982755        1.6664507366       -1.4591872077
 C          1.4765941142        1.4956800742       -1.4107217914
 C          0.9220497710        0.5720871511       -0.5043334387
 C         -0.5285351665        0.3975475990       -0.3983503706
 C         -1.3958584879        1.4866876306       -0.5199219934
 C         -2.7582292609        1.3284052179       -0.3986433158
 C         -3.3043553476        0.0643693480       -0.1554603249
 N         -4.6822216515       -0.1023088527       -0.0233419291
 C         -5.4532457238        0.8810654985        0.6016737785
 C         -6.7479532716        1.1516063326        0.1540334298
 C         -7.5082455033        2.1207326248        0.7777187245
 C         -6.9937370520        2.8352382267        1.8484227666
 C         -5.7083580870        2.5712890382        2.2953467974
 C         -4.9402008900        1.6016030993        1.6823442605
 C         -5.2906149817       -1.2697587126       -0.4957396884
 C         -6.3316205432       -1.8637052080        0.2197904712
 C         -6.9248620217       -3.0180974915       -0.2514326853
 C         -6.4924795835       -3.5965570118       -1.4345656828
 C         -5.4593836869       -3.0096736451       -2.1486671422
 C         -4.8598800699       -1.8543609374       -1.6881232133
 C         -2.4437840504       -1.0321402188       -0.0443344245
 C         -1.0829970520       -0.8633875935       -0.1606033499
 C          1.7603028677       -0.1700738589        0.3041944038
 C          3.1618894095       -0.0304219423        0.2500659783
 H          5.4834937671       -2.7255920741        2.1241830248
 H          7.8999694140       -3.1059637992        1.7465740317
 H          9.1740021689       -1.6006602025        0.2444220566
 H          7.9964929524        0.3231742232       -0.8266402561
 H          3.3041662945        2.3754569466       -2.1313751394
 H          0.8385189670        2.0555280536       -2.0757075169
 H         -0.9911930295        2.4714725771       -0.6959376024
 H         -3.4153647206        2.1792417602       -0.5031796883
 H         -7.1432042134        0.6066817669       -0.6903488133
 H         -8.5062286996        2.3252023926        0.4205462708
 H         -7.5910746165        3.5924731731        2.3319634731
 H         -5.3038478879        3.1183332406        3.1333224280
 H         -3.9457608408        1.3843066599        2.0423126865
 H         -6.6570158692       -1.4220394971        1.1500807194
 H         -7.7233536548       -3.4745743299        0.3137073191
 H         -6.9573722827       -4.5000016905       -1.7975160614
 H         -5.1226113445       -3.4509615363       -3.0741624546
 H         -4.0644224041       -1.3887777426       -2.2507670509
 H         -2.8542958426       -2.0115205249        0.1520703512
 H         -0.4344820972       -1.7212539860       -0.0747294721
 H          1.3707321524       -0.8726602905        1.0260893552
  57
        -95.34594892
 O          3.4384199548       -1.6531158618       -1.9210470409
 C          3.9862773499       -0.9126864888       -1.0647433208
 C          5.4338465572       -0.8655370126       -0.9541796367
 C          6.1687890201       -1.6854269871       -1.8420010324
 C          7.5396747557       -1.7100036677       -1.8123764241
 C          8.2491551651       -0.9252980599       -0.9046574129
 C          7.5504687665       -0.1145541635       -0.0266060538
 C          6.1709492694       -0.0927404895       -0.0587493464
 S          5.3908335684        0.9861057966        1.1303283887
 O          5.6918014435        0.5171395962        2.4595366275
 O          5.7492989808        2.3519074756        0.8405883184
 C          3.6517160543        0.7668584100        0.8129617696
 C          2.7949078098        1.5061286833        1.6033774622
 C          1.4275468677        1.3878653853        1.4528019500
 C          0.9084451296        0.5101485896        0.4817527729
 C         -0.5380467556        0.3644065103        0.3036437650
 C         -1.3952801464        1.4584876277        0.4535734833
 C         -2.7575232811        1.3208630133        0.3130873885
 C         -3.3159913404        0.0731584990        0.0166811050
 N         -4.6953080800       -0.0774634317       -0.1035126711
 C         -5.4756206130        0.9580133546       -0.6274228653
 C         -5.0014405625        1.7355094632       -1.6855725469
 C         -5.7784490659        2.7564616254       -2.1964560122
 C         -7.0329337800        3.0161802635       -1.6667243480
 C         -7.5086740723        2.2445633934       -0.6179450213
 C         -6.7397270676        1.2227555600       -0.0975324345
 C         -5.3107058105       -1.2637010056        0.3099499886
 C         -4.8614924379       -1.9333166846        1.4494772857
 C         -5.4732893280       -3.1041714129        1.8505130934
 C         -6.5388048727       -3.6214061242        1.1303219984
 C         -6.9907594401       -2.9575263332        0.0004701027
 C         -6.3843467778       -1.7876174494       -0.4118837273
 C         -2.4635874429       -1.0234039627       -0.1492075477
 C         -1.1025303402       -0.8756232153       -0.0100013278
 C          1.7787892580       -0.2129859971       -0.3095173667
 C          3.1790013398       -0.1030641239       -0.1745303303
 H          5.6003815858       -2.2850147029       -2.5376647955
 H          8.0743955380       -2.3474938203       -2.5014736529
 H          9.3272547730       -0.9475806790       -0.8818511081
 H          8.0543462782        0.5095983764        0.6948904630
 H          3.2261464014        2.1614765826        2.3440738365
 H          0.7639398832        1.9383068901        2.1000501780
 H         -0.9829655500        2.4305943672        0.6766822534
 H         -3.4056817289        2.1736658068        0.4516813893
 H         -4.0310385441        1.5221006038       -2.1086281562
 H         -5.4056120702        3.3478208417       -3.0191830127
 H         -7.6372311452        3.8140678290       -2.0699820797
 H         -8.4820684592        2.4452239603       -0.1967050231
 H         -7.1040222539        0.6308985818        0.7290023871
 H         -4.0413170119       -1.5223338147        2.0188315666
 H         -5.1216869686       -3.6113441838        2.7361203680
 H         -7.0147474015       -4.5361358624        1.4482406627
 H         -7.8159478795       -3.3581914395       -0.5687172129
 H         -6.7258074420       -1.2787642641       -1.3009981178
 H         -2.8813159357       -1.9875086546       -0.3991113286
 H         -0.4622165375       -1.7352742107       -0.1324420937
 H          1.4196230362       -0.8712278603       -1.0869796489
  57
        -95.34590928
 O          3.4710644332       -0.8368304290       -2.4157919931
 C          3.9989671817       -0.4514169157       -1.3439154600
 C          5.4109122874       -0.1083684762       -1.2956154478
 C          6.1026633037       -0.0479406488       -2.5262820158
 C          7.4133181828        0.3545011457       -2.5776503965
 C          8.0985602637        0.7119663443       -1.4173613695
 C          7.4492249614        0.6302847106       -0.1972446815
 C          6.1336351665        0.2186682858       -0.1487435937
 S          5.4098776347       -0.0219468832        1.4624399912
 O          5.6927972756       -1.3692354287        1.8912164700
 O          5.8100541193        1.0369232078        2.3524193613
 C          3.6704546400        0.0977621045        1.1115701178
 C          2.8207756919        0.4005192589        2.1556666489
 C          1.4528879978        0.3826925887        1.9670603986
 C          0.9257047960        0.0264215471        0.7102284921
 C         -0.5222380555       -0.0171640482        0.4942395377
 C         -1.3919812786       -0.4221079845        1.5112032244
 C         -2.7553271878       -0.4377926148        1.3205281994
 C         -3.3033521378       -0.0454115477        0.0949915609
 N         -4.6823988758       -0.0320378064       -0.0987426444
 C         -5.2636596413        0.9376011635       -0.9234963163
 C         -4.7774451208        2.2461292679       -0.9279883488
 C         -5.3542238732        3.1960159616       -1.7473759809
 C         -6.4205709598        2.8611760338       -2.5672020443
 C         -6.9096896888        1.5642866749       -2.5622708439
 C         -6.3387563056        0.6052398520       -1.7492989420
 C         -5.4984735969       -0.9745647102        0.5343428133
 C         -6.7549737331       -0.6032773575        1.0168942693
 C         -7.5616098110       -1.5353723789        1.6386807802
 C         -7.1313382687       -2.8441373719        1.7915169403
 C         -5.8845691095       -3.2172116849        1.3141694905
 C         -5.0704294185       -2.2944300219        0.6877328167
 C         -2.4385999109        0.3448942222       -0.9331839746
 C         -1.0774058857        0.3575835880       -0.7331705705
 C          1.7905875348       -0.2733203609       -0.3245555597
 C          3.1898229232       -0.2252132084       -0.1621062055
 H          5.5518534128       -0.3180152090       -3.4150951682
 H          7.9176549954        0.3998377181       -3.5320336528
 H          9.1263235815        1.0358867208       -1.4636833263
 H          7.9435610390        0.8751913685        0.7297743487
 H          3.2566930623        0.6530627939        3.1096922296
 H          0.7945226506        0.6588439295        2.7750303683
 H         -0.9894644436       -0.7371969823        2.4615286711
 H         -3.4111747706       -0.7349645777        2.1255619904
 H         -3.9563595817        2.5103977601       -0.2783125122
 H         -4.9733006847        4.2059677392       -1.7404263418
 H         -6.8678560827        3.6067001763       -3.2060863331
 H         -7.7359651880        1.2953123636       -3.2027301043
 H         -6.7093591145       -0.4091232416       -1.7566563598
 H         -7.0836978829        0.4200040951        0.9109852973
 H         -8.5285958806       -1.2361080462        2.0139053687
 H         -7.7640226545       -3.5688190361        2.2799706771
 H         -5.5466800083       -4.2365157897        1.4235124359
 H         -4.1063690673       -2.5891263927        0.3007506790
 H         -2.8474727360        0.6289717667       -1.8914924691
 H         -0.4297950879        0.6766605852       -1.5347060078
 H          1.4262047755       -0.5708908556       -1.2966979125
