  45
  -74.6248465919000       0.571542086766771      !
 C         -3.9486849528        0.8224374265       -1.6229735609
 C         -4.4120784877        0.1779980133       -0.4894867567
 C         -3.6897982304       -0.8671074192        0.0596213476
 C         -2.4908753770       -1.2746256537       -0.5158409157
 C         -1.7456848522       -2.4057493669        0.0568620372
 C         -2.3859630081       -3.6270273723        0.2497726234
 C         -1.6735635011       -4.7112467900        0.7307232507
 C         -0.3213338592       -4.5376860116        0.9877208857
 N          0.2971836702       -3.3847794046        0.8339808249
 C         -0.3850728783       -2.3307970397        0.3997866023
 C          0.3730947774       -1.0704363364        0.3214101543
 C          1.7486003762       -1.0967174012        0.1033256393
 C          2.4345393165        0.1126728853        0.0207972134
 C          3.8675293705        0.1232943220       -0.2127231684
 C          4.7618771430        1.1813745700       -0.2419824842
 N          5.9521435729        0.5979826643       -0.4989428379
 N          5.8038557528       -0.7206557746       -0.6218185285
 N          4.5790922428       -1.0084594967       -0.4534773856
 C          1.7103815694        1.2936104987        0.1589115332
 C          0.3390595587        1.2148764467        0.3910255497
 C         -0.4682208317        2.4342251874        0.5343256405
 C         -1.8345384735        2.3488685159        0.8048214233
 C         -2.5653241756        3.5174086680        0.9054216938
 C         -1.9135540205        4.7308380654        0.7414279063
 C         -0.5504335009        4.7091988876        0.4846575544
 N          0.1564717828        3.6007744298        0.3811873325
 N         -0.3076712429        0.0580178931        0.4766429688
 C         -2.0398263175       -0.6311910132       -1.6654064467
 C         -2.7622241205        0.4123272328       -2.2100725441
 H         -4.5098875765        1.6403985854       -2.0504641533
 H         -5.3387343167        0.4899087284       -0.0291615539
 H         -4.0452730524       -1.3602550287        0.9534637719
 H         -3.4345352785       -3.7217429116        0.0028854639
 H         -2.1498697382       -5.6663380317        0.8892357337
 H          0.2958451597       -5.3542724423        1.3387504828
 H          2.2697419717       -2.0334136540       -0.0011513386
 H          4.6480378404        2.2346804225       -0.1024914252
 H          6.8563004516        1.0331383828       -0.5976193356
 H          2.1708983230        2.2651183114        0.0918617618
 H         -2.2838690196        1.3773091013        0.9223598075
 H         -3.6264068645        3.4847534313        1.1080546610
 H         -2.4449762141        5.6674529054        0.8112116635
 H          0.0068870698        5.6286186183        0.3530332895
 H         -1.1207440490       -0.9573058119       -2.1307431347
 H         -2.4011196148        0.9084040814       -3.0992159663
  45
  -74.6245742927000       0.428457913233229      !
 C         -4.0010773698        0.8701332649       -1.4757396068
 C         -4.4240893700        0.2170332674       -0.3315502877
 C         -3.6968476837       -0.8489219144        0.1689196568
 C         -2.5326337064       -1.2671404507       -0.4661536225
 C         -1.7826191381       -2.4196262232        0.0565639281
 C         -2.4309631596       -3.6390335337        0.2326185917
 C         -1.7195604368       -4.7438672752        0.6661818520
 C         -0.3602375277       -4.5911914665        0.8942187171
 N          0.2681118616       -3.4412012230        0.7548216873
 C         -0.4130304399       -2.3670304849        0.3667428073
 C          0.3607968205       -1.1159267058        0.2983022641
 C          1.7395714379       -1.1669599521        0.1050486020
 C          2.4483348555        0.0290372371        0.0267730150
 C          3.8869933109        0.0447512519       -0.1689789805
 C          4.7938003028       -1.0016513157       -0.2233961174
 N          5.9837549721       -0.3949383929       -0.4195082408
 N          5.8237963078        0.9260393660       -0.4854086772
 N          4.5918696687        1.1933600369       -0.3359852097
 C          1.7414890791        1.2238614263        0.1349488157
 C          0.3654686627        1.1703015262        0.3458164119
 C         -0.4275164671        2.4020247564        0.4636304974
 C         -1.7796206177        2.3437879995        0.8038518587
 C         -2.4969189163        3.5232079545        0.8739180621
 C         -1.8457689191        4.7193272466        0.6114120737
 C         -0.4959296726        4.6709032744        0.2929403107
 N          0.1962646510        3.5518140893        0.2182515386
 N         -0.3018077852        0.0244289098        0.4354903559
 C         -2.1233249828       -0.6157244559       -1.6266170682
 C         -2.8508048840        0.4479206814       -2.1231598386
 H         -4.5653928031        1.7049793434       -1.8644908150
 H         -5.3230515858        0.5382365329        0.1752849588
 H         -4.0197459089       -1.3491702365        1.0711926249
 H         -3.4867484654       -3.7152305016        0.0121377534
 H         -2.2020961016       -5.6978254471        0.8118798322
 H          0.2562723174       -5.4243850477        1.2064230325
 H          2.2200783521       -2.1273234648        0.0185293765
 H          4.6875166876       -2.0611731273       -0.1363157896
 H          6.8944758055       -0.8179299716       -0.5127492566
 H          2.2446136007        2.1732525591        0.0624439963
 H         -2.2299350441        1.3852069416        0.9981501488
 H         -3.5470383703        3.5117778423        1.1291282699
 H         -2.3677770062        5.6629663287        0.6529962854
 H          0.0604620737        5.5750297794        0.0816922079
 H         -1.2317204641       -0.9500336117       -2.1375957690
 H         -2.5210448214        0.9513137669       -3.0202765214
