42
 energy: -77.068787085384 gnorm: 0.000160647390 xtb: 6.7.1 (edcfbbe)
N            8.88539912004477        1.08577621621923        0.12285649945451
C            7.74038282174268        1.03257025301897        0.15000084110029
C            6.32672580763629        0.97058737762858        0.19496083807924
C            5.71147183399604        2.21633468752065        0.45785383733363
N            5.25172984830694        3.25642057543248        0.60696493403161
C            5.67856695715306       -0.18580893493408       -0.09211132471199
C            4.25419654738901       -0.40917992467953       -0.06074562638976
C            3.66687350285942       -1.30170853746442       -0.97242810992999
F            4.47224711315280       -1.90520418838371       -1.87137038741866
C            2.31743393978813       -1.55633055764183       -1.02029202525968
C            1.45832898463814       -0.92607257734615       -0.11597478531479
C            0.02177634225917       -1.21436834763800       -0.13807766841704
C           -0.38170328338741       -2.54996169678665       -0.17272851688650
C           -1.71249878023620       -2.89990366587184       -0.11648577671186
C           -2.70452733152494       -1.91919542163462       -0.03477476219733
C           -4.08749042942745       -2.25192112827621        0.04766418717451
C           -5.03773065745383       -1.29032811091649        0.11819312787887
C           -4.68906399863025        0.09208643158668        0.10446625029953
C           -5.65339342219415        1.10005637505770        0.17122914311767
C           -5.28634301350945        2.43364091895940        0.14920365411686
C           -3.95424995977453        2.79398314150644        0.05740333098217
C           -2.95636479036801        1.81921754296885       -0.00980614301542
C           -1.57639307250514        2.15047909184982       -0.13145153477170
C           -0.62096736652293        1.19185520824319       -0.18070846142170
C           -0.95020190452198       -0.19412967868714       -0.10045259255676
C           -2.32182091270057       -0.55414799050962       -0.03915742391315
C           -3.32001533818007        0.45052465408605        0.01940016235247
C            2.01084786499111       -0.07424483508665        0.84367633517669
C            3.36541392498586        0.16807670766998        0.85846079155409
F            3.86212129398533        0.92796518432475        1.85527979017065
H            6.27936444608868       -1.02580283330561       -0.42143786704307
H            1.93408725346573       -2.22801086742620       -1.77177892648248
H            0.37235780604185       -3.32260186367424       -0.20278815567324
H           -1.99812776054978       -3.94159508526911       -0.12342727097214
H           -4.35860809828558       -3.29806146749796        0.05277302120040
H           -6.08455505359686       -1.55132144950521        0.18222284710814
H           -6.69653723233455        0.82640109006636        0.24040193146418
H           -6.04659706409744        3.19964116229324        0.20143224834699
H           -3.67384440709881        3.83732903583078        0.03454828564654
H           -1.30543855903417        3.19494124349213       -0.19342421674251
H            0.41400004761358        1.47339470446665       -0.30256455241572
H            1.39314797979550        0.37861956030222        1.60299107164767
