42
 energy: -77.009807231166 gnorm: 0.000048470562 xtb: 6.7.1 (edcfbbe)
N            8.13578751852427        0.64017537986867        0.16451664981423
C            6.98519784021107        0.69118140566224        0.12662424901517
C            5.58527953547159        0.75344336776900        0.09591383819533
C            5.09224047812491        2.06044802154429        0.02485794461993
N            4.75633271454591        3.15558647297412       -0.10439649915664
C            4.85239557158423       -0.42629087419584        0.00602604553890
C            3.45757031939086       -0.60383730099682        0.04932205445112
C            2.87431005075010       -1.79761108640800       -0.46409640836890
F            3.71480330928786       -2.72593955225884       -0.98627391290134
C            1.53758839723716       -2.05055019974256       -0.50268290833211
C            0.61221174256388       -1.09226097510144       -0.02356389716055
C           -0.79824266743565       -1.32591509873670       -0.07177726399941
C           -1.29813538528619       -2.63606915927156        0.10393482603993
C           -2.62504355144828       -2.87651826576165        0.30731052094992
C           -3.57480379549976       -1.81807499306141        0.30891077993648
C           -4.93664700485528       -2.04238014674961        0.56164981633631
C           -5.84375915447354       -1.00863379379225        0.53136335949857
C           -5.43456693744033        0.30175198066077        0.20729806022149
C           -6.34779240310927        1.37515624779098        0.14148166315207
C           -5.92398802192841        2.64885821410139       -0.19652249889857
C           -4.59681266472424        2.89262572991586       -0.48965565634760
C           -3.64303579901231        1.85095131640400       -0.43336068420117
C           -2.28967595938954        2.05284778777178       -0.76084758081247
C           -1.37534210150044        1.02578795211825       -0.67317841523594
C           -1.74765724157234       -0.25211425007541       -0.22178264509874
C           -3.12335897035004       -0.50598608875541        0.01450327071100
C           -4.06456565883406        0.54716852119837       -0.06889835048798
C            1.15305132157117        0.07103548265730        0.57315572744222
C            2.49996050898180        0.28011578013126        0.61639996850466
F            2.94118570632989        1.34723715919759        1.32395711393800
H            5.43856483539273       -1.32171703555946       -0.16557433128071
H            1.20038939728455       -2.96340298557222       -0.96631253974333
H           -0.59688530436352       -3.45307659775645        0.16938938545304
H           -2.97186647726552       -3.88049429181548        0.50182456864043
H           -5.26678744946798       -3.04705667146734        0.78137504180370
H           -6.88613930113608       -1.19209584104211        0.74511984489655
H           -7.38946699638798        1.18740815181741        0.35476042539440
H           -6.63943597424134        3.45649421527513       -0.24042057726788
H           -4.26982302258153        3.88315691213712       -0.76815799111470
H           -1.96920183301535        3.02956574367643       -1.09170868606290
H           -0.35694545124153        1.20105025297668       -0.98377725027349
H            0.51149618706401        0.77319199405496        1.08209911919118
