42
 energy: -77.068703138355 gnorm: 0.000045080973 xtb: 6.7.1 (edcfbbe)
N            8.14574788812498        0.66299360830336       -0.09334582342116
C            6.99983926131087        0.66479442021272       -0.05365281163696
C            5.58528942767086        0.67286101953237        0.00555045474917
C            5.02418002254234        1.97085521148916        0.01525358313993
N            4.60672637270988        3.03727977167235       -0.04597466049448
C            4.88691344243408       -0.48882473584187       -0.04404490286270
C            3.45465373161769       -0.64071091823037        0.03168437932964
C            2.82256294279789       -1.67020094362778       -0.68476073921232
F            3.59417725359394       -2.47393390002733       -1.44603082219441
C            1.46313755439185       -1.87071389284005       -0.68139219103808
C            0.63948298275347       -1.03723039997294        0.07991185069575
C           -0.80855647254208       -1.26031305839988        0.11240090056358
C           -1.27049891072613       -2.55564806196668        0.34950525119153
C           -2.61549007773065       -2.82781667948287        0.46711779640998
C           -3.56283648835098       -1.80872727939539        0.33897625301753
C           -4.95922203833307       -2.05666572566596        0.47673073004608
C           -5.86572668135338       -1.06035941630877        0.34227829499601
C           -5.45626936727755        0.27332713388864        0.04806392269847
C           -6.37470655867194        1.31511239617022       -0.09871284289890
C           -5.94890581883514        2.59807439583506       -0.39281227483411
C           -4.60256927804309        2.87240222029091       -0.55000957958612
C           -3.64890638639451        1.86219877169109       -0.40713240594769
C           -2.25571457585934        2.10097839106381       -0.58270936294531
C           -1.34355686735309        1.11255849318181       -0.42424176641285
C           -1.73399978658796       -0.21214524889079       -0.06551835473145
C           -3.12019757312691       -0.49171284048552        0.05731993881505
C           -4.07280512581491        0.54617340856638       -0.09924844168814
C            1.23538637649927       -0.03767960886845        0.85268193213932
C            2.59911307142526        0.14408724909716        0.81909968418860
F            3.13630784587154        1.06363039237472        1.64589266450478
H            5.44885416341495       -1.40260269255546       -0.19961283462499
H            1.04496582530702       -2.66102635254740       -1.28419877205379
H           -0.55123789729585       -3.35043989094256        0.48204024819114
H           -2.94723688980331       -3.83524061814895        0.67141886672155
H           -5.27647108188278       -3.06665197113641        0.69393750760463
H           -6.92292135899657       -1.25671701479527        0.45095352077316
H           -7.42865723372790        1.10807463983702        0.01997566351835
H           -6.67398838040524        3.39144806484401       -0.50365596068332
H           -4.27617607869565        3.87508531357387       -0.78621881271425
H           -1.93889679400731        3.09764411025761       -0.85549589526733
H           -0.29697560245959        1.31831480127702       -0.59047693646645
H            0.64358233793704        0.58251024753077        1.50714192174935
