112
 energy: -188.165533491803 gnorm: 0.000076256359 xtb: 6.7.1 (edcfbbe)
N           -1.10558201071343       -2.14012278673268        2.77578744466425
C           -0.80392295981580       -1.33308331392829        2.00038533178002
C           -0.44950462461469       -0.36551331298683        1.07523527325040
C            0.92693377818084       -0.07902367611224        0.81116634072947
N            1.90947984158437       -0.88414821850744        1.40374201841247
C            2.06681674036696       -2.24012594543917        1.19863465088675
C            1.27078294268300       -3.12409266051460        0.48352628023978
C            1.67457065371175       -4.44350895770313        0.40908008421841
C            2.85041787112227       -4.87597287199527        1.01697978731785
C            3.66063002280989       -3.99489005029003        1.71105309761788
C            3.27081189240775       -2.66784720660516        1.80470139100382
C            3.85438743007020       -1.50504863248531        2.41982924192616
C            5.00889630623711       -1.28855788675800        3.15621313113462
C            5.25510845781080       -0.01622229317608        3.64263108879965
C            4.35304060943601        1.02163392350249        3.42832354985173
C            3.19769809415605        0.82945898427280        2.69303708099187
C            2.97329674307562       -0.43133433069875        2.16004049902276
C            1.28375276877450        0.98933279704034        0.01390814935839
N            2.63436264404532        1.24352128361836       -0.26732042853477
C            3.31813054492988        2.39960051832942        0.04776565282559
C            2.84561191651725        3.59332648436029        0.57565220342477
C            3.76087263092494        4.59724200786533        0.82309612078263
C            5.11979030651389        4.42058497981656        0.56658860065446
C            5.60230672238482        3.22741418699907        0.06334191625176
C            4.69856665359334        2.20695940937499       -0.19662847283062
C            4.83632793833583        0.86926823703747       -0.69380478213598
C            5.90265568108534        0.08069000460834       -1.10053911364018
S            7.58792254163849        0.50949642063698       -1.08492073296007
C            8.02060468522018       -1.06686314400236       -1.72872287204188
C            9.30300133529052       -1.50201688065749       -2.01145007319949
C            9.46673686925079       -2.77966847481361       -2.51828026309310
C            8.36721553317363       -3.60379752704180       -2.73512793415096
C            7.08846961051855       -3.16649023218008       -2.45126867379887
C            6.89723184906525       -1.88330087317427       -1.94355497220308
C            5.66992210609790       -1.22309623993251       -1.58380287642684
C            4.36396955417932       -1.70883336540649       -1.68711258207386
C            3.29184577055882       -0.94698193324585       -1.27590570014549
C            3.53713119809828        0.31698388023965       -0.74317093867338
C            0.28671328583732        1.83497627132522       -0.56941341246500
C            0.64035564477514        2.79329736248592       -1.50467347260871
N            0.93904264982387        3.58845532304885       -2.29313991252605
C           -1.08996533622475        1.55061844113435       -0.30238002832671
N           -2.07319084092694        2.35218297689541       -0.89735079144828
C           -3.13092772906771        1.89748009714343       -1.66042124589943
C           -3.36297720955896        0.62974746070329       -2.17345364489255
C           -4.50994384655315        0.43705494183243       -2.92173744639863
C           -5.39521445228047        1.48158569086818       -3.17003247048655
C           -5.13954193756033        2.76026196566277       -2.70497041258739
C           -3.99496139049729        2.97650598917623       -1.95375154938546
C           -3.40581845967897        4.14411121680981       -1.35257609698073
C           -3.78004947804282        5.47721562271518       -1.28993996699419
C           -2.96970340626024        6.36100592423544       -0.59890131011170
C           -1.80972589817052        5.92554545051145        0.03642096441483
C           -1.42116585617399        4.60020624321009       -0.00800849253342
C           -2.21663396180776        3.71352809868056       -0.72028850230350
C           -1.44635813438599        0.48378946059466        0.49620903590561
N           -2.79601153778741        0.23632308187171        0.78763444689822
C           -3.68727370578034        1.15536880011911        1.30480526250803
C           -3.44726505780280        2.41889059243819        1.82451301266926
C           -4.53085765812422        3.13990883466596        2.28957685855172
C           -5.82036075562229        2.61412871228138        2.25537447713584
C           -6.05925245731216        1.33613421831731        1.78430704714931
C           -4.98485325860571        0.59427263050620        1.31455479695348
C           -4.84915677987785       -0.73633359245180        0.79658127779868
C           -5.72814218219240       -1.77814685727014        0.54192728034311
S           -7.44728092251414       -1.78745147192909        0.81433632355879
C           -7.55995147259136       -3.42817340741561        0.20113065215356
C           -8.71914688095289       -4.17712729502887        0.10211706186011
C           -8.63071090396574       -5.46163165785405       -0.40494190352620
C           -7.40436561601873       -5.98478233179605       -0.80381575894853
C           -6.24951375199156       -5.23515174579334       -0.70419574379479
C           -6.31178665478839       -3.93845966871659       -0.19685956733260
C           -5.25105626029180       -2.98598446061259       -0.00487065706853
C           -3.89196548441870       -3.13102378442548       -0.30209558663900
C           -3.00360799746653       -2.10666574736951       -0.06481105934302
C           -3.48022368906013       -0.92146195822279        0.49468706259899
H            0.36086729740234       -2.79704856087816        0.00397224961265
H            1.06575485379362       -5.15116530378767       -0.13334585667660
H            3.13311773968170       -5.91482460471093        0.93873720822926
H            4.57837094980804       -4.32919678597572        2.16958771885569
H            5.69504986615002       -2.09847634279897        3.34992196918545
H            6.15123097949333        0.17392086422891        4.21343890381001
H            4.55425862034578        1.99639040647651        3.84602950397428
H            2.48948905530718        1.63213786828267        2.55321108760333
H            1.79645707449789        3.73854221998754        0.78163286470307
H            3.41517186939258        5.53771757397025        1.22483258548578
H            5.80335559987198        5.23045946202630        0.77094140785331
H            6.65520718311401        3.08423845945087       -0.12477822230672
H           10.15022331487748       -0.85652977507016       -1.83980484586875
H           10.45893842616415       -3.13806872379836       -2.74686443365915
H            8.51677970405965       -4.59735164872018       -3.13017943906920
H            6.23764791034723       -3.80866100417140       -2.61939907924757
H            4.19571379721963       -2.69200785113193       -2.09641848074313
H            2.28345621044347       -1.31602058528049       -1.37945724724696
H           -2.66554453899330       -0.17784885716022       -2.01043135213764
H           -4.71697758006526       -0.54315576844491       -3.32421012191199
H           -6.28468047831079        1.29174482913416       -3.75133039746552
H           -5.81139963605592        3.57482528937633       -2.92642087367644
H           -4.68583289607645        5.81462489742091       -1.76934962490050
H           -3.24032613870575        7.40452137380486       -0.54431912616614
H           -1.20119948889050        6.63528235784851        0.57631675904209
H           -0.52392447220422        4.27079427020909        0.49334891235857
H           -2.44781564856407        2.82256053251256        1.87865258293693
H           -4.37077507485239        4.12930652982581        2.69013367641912
H           -6.64202390203110        3.21063195318486        2.62106678070028
H           -7.05356102135517        0.91709080242932        1.78476253874470
H           -9.66523416641771       -3.76328714801213        0.41442586360584
H           -9.52321261423224       -6.06270802360614       -0.48999191930979
H           -7.35705533391504       -6.98953414963740       -1.19606377460286
H           -5.30029430341530       -5.64517973951180       -1.01296007718118
H           -3.54019045757585       -4.05750482583050       -0.72760674187128
H           -1.95852374426332       -2.22254165286998       -0.30488809586849
