  66
        -88.32825214
 C         -7.2445766072        3.2349696522       -1.3930036990
 C         -7.1058845835        2.6855210123        0.0340213389
 C         -8.4309536146        2.0486909233        0.4766373224
 C         -6.8057892652        3.8596470194        0.9694903270
 C         -6.0157584213        1.6256993990        0.0537468301
 C         -6.1469574076        0.4893955915       -0.7414383758
 C         -5.1863108568       -0.5009084571       -0.7528355889
 C         -4.0414171233       -0.3946894607        0.0324126433
 C         -3.0117420347       -1.4436786745        0.0236880558
 C         -3.3880059827       -2.7940269274        0.0150632219
 C         -2.4574429469       -3.8130007688        0.0088080809
 C         -1.1154171269       -3.4656383813        0.0042583481
 N          0.0009895632       -4.2634015325       -0.0094586242
 C          1.1217792586       -3.4717868923       -0.0130495054
 C          2.4619189795       -3.8261282888       -0.0272656822
 C          3.3980171836       -2.8122557094       -0.0247250810
 C          3.0294880224       -1.4597049108       -0.0130506330
 C          4.0638379818       -0.4154594678       -0.0137788646
 C          5.2196046774       -0.5419611941        0.7488813504
 C          6.1883177700        0.4452051236        0.7498679753
 C          6.0461411875        1.5980507207       -0.0125653902
 C          7.0835319003        2.7091723812       -0.0417454096
 C          7.5789893028        2.8963296947       -1.4827527771
 C          6.4364226378        4.0086161696        0.4582266519
 C          8.2965660560        2.4089417862        0.8428989937
 C          4.8869853437        1.7194970974       -0.7757247979
 C          3.9161071413        0.7394187021       -0.7779945849
 C          1.6841958247       -1.1123818572       -0.0025904714
 C          0.7258816681       -2.1137716796       -0.0007896988
 C         -0.7119429809       -2.1097802825        0.0120064574
 C         -1.6648180839       -1.1031993552        0.0249020712
 C         -3.9033054860        0.7398918055        0.8244358141
 C         -4.8718198718        1.7269759675        0.8358811965
 H         -8.0114762713        4.0064741839       -1.4251509690
 H         -7.5201725520        2.4521995741       -2.0941178665
 H         -6.3025080177        3.6700100809       -1.7214757647
 H         -8.7297243561        1.2480339562       -0.1941412057
 H         -8.3323080021        1.6349044669        1.4783046441
 H         -9.2216312165        2.7962878726        0.4877362788
 H         -6.7204870632        3.5262584690        2.0011770326
 H         -5.8872220759        4.3652344378        0.6805039320
 H         -7.6177820146        4.5824502022        0.9161686714
 H         -7.0155710874        0.3685701937       -1.3721035363
 H         -5.3144459194       -1.3600290818       -1.3958699944
 H         -4.4393256860       -3.0407953570        0.0351594645
 H         -2.7661638919       -4.8483272786        0.0095482136
 H         -0.0018461044       -5.2686779248       -0.0162281019
 H          2.7650084287       -4.8629597876       -0.0431733009
 H          4.4476578580       -3.0649158973       -0.0541455845
 H          5.3557998417       -1.4162648976        1.3694124109
 H          7.0617192630        0.2978256656        1.3645733213
 H          8.0228231241        1.9733138347       -1.8502153887
 H          8.3317145011        3.6811407262       -1.5215994066
 H          6.7663907431        3.1715722812       -2.1491570844
 H          5.6033092652        4.3044575146       -0.1732318646
 H          6.0649980708        3.8769318959        1.4724492834
 H          7.1665789965        4.8152725181        0.4595767755
 H          8.8043457016        1.5040537042        0.5168272032
 H          9.0046492096        3.2329669198        0.7789868880
 H          8.0038244655        2.2985508921        1.8845094281
 H          4.7321576166        2.5960467832       -1.3875573186
 H          3.0384314069        0.8603084229       -1.3967203877
 H          1.3874390274       -0.0747745145        0.0251203761
 H         -1.3631545035       -0.0666356316        0.0137940113
 H         -3.0343943450        0.8431809854        1.4587813576
 H         -4.7171062971        2.5819368221        1.4742216759
  66
        -88.32820770
 C         -8.4798803335        1.9494842616        0.5233993716
 C         -7.1754240722        2.6413968804        0.1026253907
 C         -6.9002616319        3.7792860511        1.0893328572
 C         -7.3391685159        3.2508172873       -1.2967846951
 C         -6.0584971968        1.6102864945        0.0696958631
 C         -6.1670749768        0.5064167852       -0.7732225230
 C         -5.1880842686       -0.4644193289       -0.8238696741
 C         -4.0465476975       -0.3703997299       -0.0319719801
 C         -3.0099757596       -1.4123726342       -0.0641683125
 C         -3.3858800981       -2.7623416289       -0.1044522339
 C         -2.4553040352       -3.7807876973       -0.1166433509
 C         -1.1137693357       -3.4328255338       -0.0947898314
 N          0.0012302608       -4.2320578082       -0.0984192059
 C          1.1226654122       -3.4423606046       -0.0694180268
 C          2.4613048991       -3.8018916967       -0.0567289485
 C          3.4001731917       -2.7914395047       -0.0234618330
 C          3.0347036084       -1.4382663216       -0.0115825847
 C          4.0767890911       -0.4015269267        0.0125757284
 C          5.1996039864       -0.5273274642        0.8227894366
 C          6.1805805359        0.4473799977        0.8424759512
 C          6.0851133517        1.5843960138        0.0495745532
 C          7.1432985340        2.6761127019        0.0315857703
 C          7.7265246367        2.7810973609       -1.3848997923
 C          6.4964629433        4.0109860428        0.4281105887
 C          8.2946107028        2.3996533975        1.0024303718
 C          4.9588528778        1.7044355341       -0.7616663107
 C          3.9735595763        0.7387279590       -0.7796409118
 C          1.6911191196       -1.0852989020       -0.0272383447
 C          0.7290110475       -2.0835123795       -0.0508485055
 C         -0.7094152600       -2.0774199537       -0.0618251372
 C         -1.6633972575       -1.0712210395       -0.0425227915
 C         -3.9266460593        0.7365404229        0.8008567562
 C         -4.9137475308        1.7040523704        0.8516965838
 H         -9.2894504944        2.6745475828        0.5751019202
 H         -8.3625249357        1.4919749777        1.5035989673
 H         -8.7628414690        1.1736512858       -0.1825621900
 H         -5.9965568861        4.3213005162        0.8203548858
 H         -7.7308247264        4.4823320731        1.0723592321
 H         -6.8012481386        3.4013823128        2.1043634216
 H         -6.4132431163        3.7300528085       -1.6080469851
 H         -7.5935023107        2.4922913365       -2.0319821156
 H         -8.1302195823        3.9980341704       -1.2902360691
 H         -7.0335011628        0.3947390883       -1.4085012712
 H         -5.3006709264       -1.2995938371       -1.5004998342
 H         -4.4373120482       -3.0091338150       -0.1021554638
 H         -2.7631421761       -4.8161050240       -0.1376805099
 H         -0.0029279795       -5.2371598510       -0.1159581381
 H          2.7606453712       -4.8398111108       -0.0757647966
 H          4.4498293635       -3.0460332780       -0.0303214692
 H          5.2993443645       -1.3915548109        1.4641148887
 H          7.0268475166        0.3021457092        1.4946374775
 H          8.1802830757        1.8352187402       -1.6760086622
 H          8.4899013323        3.5559071331       -1.4199513164
 H          6.9570592944        3.0269236609       -2.1122932313
 H          5.7165789587        4.2976149171       -0.2718982631
 H          6.0535310054        3.9344206022        1.4190933893
 H          7.2451965906        4.8003486422        0.4444562179
 H          8.8112838157        1.4777388221        0.7455631190
 H          9.0155816241        3.2131825292        0.9508611226
 H          7.9349179416        2.3339797360        2.0268283494
 H          4.8426976353        2.5676222973       -1.4003697535
 H          3.1210707698        0.8574153688       -1.4331798745
 H          1.3992726245       -0.0461082028        0.0003458251
 H         -1.3626580810       -0.0343529489       -0.0295964182
 H         -3.0585041287        0.8314569066        1.4374922142
 H         -4.7741385930        2.5361988021        1.5228553243
  66
        -88.32819279
 C         -7.6314650586        2.7700801855       -1.5355704844
 C         -7.1478730641        2.6556512202       -0.0827471147
 C         -8.3623469672        2.3529210875        0.7992092028
 C         -6.5475791057        3.9933358339        0.3720838995
 C         -6.0786337696        1.5778701088        0.0002320452
 C         -4.9176814156        1.6994509856       -0.7602326275
 C         -3.9267518296        0.7398844080       -0.7273342378
 C         -4.0552318908       -0.3936772431        0.0712563485
 C         -3.0148193158       -1.4319402584        0.0890979796
 C         -3.3856648993       -2.7839765008        0.1101980284
 C         -2.4517527383       -3.7992684281        0.1140592303
 C         -1.1113321010       -3.4466272922        0.1004218436
 N          0.0062783214       -4.2420872632        0.0987995867
 C          1.1250228407       -3.4483855909        0.0780052244
 C          2.4649093162       -3.8033630889        0.0656605608
 C          3.4005175892       -2.7895974013        0.0472109542
 C          3.0307017692       -1.4374769822        0.0348240490
 C          4.0694121443       -0.3975435183        0.0101294972
 C          5.2179030191       -0.5082921988        0.7860652414
 C          6.1966813669        0.4684186748        0.7593623591
 C          6.0727057306        1.5935233284       -0.0464638646
 C          7.1247551088        2.6893268009       -0.1113873790
 C          6.4922689362        4.0161437588        0.3319246753
 C          8.3271292530        2.4078499974        0.7937447955
 C          7.6335139800        2.8123449109       -1.5547453772
 C          4.9195656369        1.7002375377       -0.8209048150
 C          3.9376315751        0.7313569968       -0.7942562928
 C          1.6856034900       -1.0894098866        0.0423937484
 C          0.7268462395       -2.0907693076        0.0674209279
 C         -0.7116633608       -2.0895825963        0.0815063916
 C         -1.6690198439       -1.0864840922        0.0735801473
 C         -5.2073044581       -0.5139354606        0.8408912176
 C         -6.1960742559        0.4523032343        0.8063829019
 H         -8.4099922698        3.5264194854       -1.6134776259
 H         -8.0391902081        1.8188008332       -1.8717465778
 H         -6.8205575022        3.0473311762       -2.2031699074
 H         -8.8367287540        1.4197527344        0.5039019334
 H         -8.0803515148        2.2938915313        1.8479066477
 H         -9.0952653972        3.1504879918        0.6933757430
 H         -6.1867580570        3.9147581278        1.3955775609
 H         -5.7149661722        4.2885605013       -0.2602918386
 H         -7.3016662378        4.7766943874        0.3306866794
 H         -4.7789717974        2.5580963470       -1.4006629293
 H         -3.0498302348        0.8581338004       -1.3476739126
 H         -4.4359794472       -3.0351034914        0.1009857035
 H         -2.7562343487       -4.8357734330        0.1224264858
 H          0.0054911712       -5.2472547746        0.1116734762
 H          2.7674955289       -4.8404518025        0.0670595971
 H          4.4504449077       -3.0414912105        0.0206204488
 H          5.3397003830       -1.3612228892        1.4384431737
 H          7.0636734469        0.3347945552        1.3861253576
 H          5.6717665412        4.3006378139       -0.3208852193
 H          7.2348254303        4.8114594239        0.3129397012
 H          6.1060803577        3.9277752939        1.3454522215
 H          8.0257422063        2.3435265207        1.8367121889
 H          8.8245895236        1.4838435149        0.5079530944
 H          9.0470174802        3.2188587092        0.7020304590
 H          6.8299522246        3.0733805468       -2.2376178478
 H          8.3984934584        3.5835727417       -1.6187218397
 H          8.0657521145        1.8690327107       -1.8825266736
 H          4.7787925924        2.5556849277       -1.4650994764
 H          3.0640575749        0.8394192080       -1.4212249275
 H          1.3902953863       -0.0509493617        0.0501641830
 H         -1.3707689381       -0.0488416889        0.0768134697
 H         -5.3260335079       -1.3674821963        1.4929963231
 H         -7.0669721054        0.3088366893        1.4255960615
  66
        -88.32816002
 C         -8.1908406363        2.4894335372       -0.8823423602
 C         -6.9881103544        2.7478424145        0.0290598662
 C         -7.5065960151        2.9459286931        1.4602995119
 C         -6.2899490568        4.0278469345       -0.4525032051
 C         -5.9847462852        1.6056914863        0.0150430488
 C         -4.8351961603        1.6922044177        0.7973097124
 C         -3.8864675509        0.6910914822        0.8015938054
 C         -4.0481100780       -0.4509745734        0.0209433547
 C         -3.0222068093       -1.5032129711        0.0043649197
 C         -3.3912143036       -2.8554546336       -0.0055377377
 C         -2.4551273500       -3.8698874407       -0.0259654027
 C         -1.1145602850       -3.5165709381       -0.0425751919
 N          0.0079421424       -4.3060865018       -0.0697749840
 C          1.1234216499       -3.5062091048       -0.0781477832
 C          2.4670599232       -3.8472734164       -0.1005504144
 C          3.3941452737       -2.8244617392       -0.0945204191
 C          3.0132209627       -1.4756457583       -0.0736472181
 C          4.0303034645       -0.4147167819       -0.0600747424
 C          5.1792057481       -0.5227146760        0.7189275304
 C          6.1118916146        0.4938395746        0.7490137710
 C          5.9469356064        1.6596508757        0.0044434799
 C          6.9956129739        2.7575669208        0.0850972431
 C          7.1088143421        3.2328772469        1.5407275736
 C          8.3455058088        2.1987064970       -0.3860369541
 C          6.6504685531        3.9693223705       -0.7849452568
 C          4.8057162645        1.7567045551       -0.7822016888
 C          3.8658618517        0.7429684915       -0.8130212784
 C          1.6648403967       -1.1413861561       -0.0576462991
 C          0.7168549862       -2.1517392819       -0.0571384142
 C         -0.7199839933       -2.1584476006       -0.0331176063
 C         -1.6768157471       -1.1568819033       -0.0077170849
 C         -5.1999675947       -0.5485371415       -0.7514177829
 C         -6.1463254852        0.4604030714       -0.7549160773
 H         -7.8791198702        2.3704356722       -1.9174822173
 H         -8.8722743820        3.3365644756       -0.8324201027
 H         -8.7354504281        1.6016280694       -0.5692454849
 H         -7.9832567451        2.0349452059        1.8167079301
 H         -6.6997965395        3.1971885647        2.1431750980
 H         -8.2377996944        3.7514810797        1.4862304539
 H         -5.9004683423        3.8873034566       -1.4588595931
 H         -6.9943118206        4.8571744844       -0.4669764051
 H         -5.4620159113        4.2958707311        0.1979930001
 H         -4.6689693755        2.5590019982        1.4200566339
 H         -3.0139439359        0.7863553983        1.4321984324
 H         -4.4408833553       -3.1082498941        0.0239322629
 H         -2.7594137628       -4.9065270886       -0.0267862246
 H          0.0124311487       -5.3113507334       -0.0808229786
 H          2.7805114298       -4.8809517549       -0.1235391867
 H          4.4460901910       -3.0672566624       -0.1273317211
 H          5.3309349430       -1.4031684499        1.3269919307
 H          6.9837156676        0.3714475171        1.3748428873
 H          7.4189280565        2.4257287126        2.1985139447
 H          6.1479973213        3.6060516369        1.8893745947
 H          7.8399919513        4.0351155239        1.6179009230
 H          8.2675527660        1.8434728122       -1.4115589719
 H          9.1074846840        2.9744501822       -0.3461641559
 H          8.6704342382        1.3702203841        0.2371715083
 H          5.7090818519        4.4176113045       -0.4754322786
 H          7.4300531052        4.7219470237       -0.6836723165
 H          6.5858992943        3.6924739893       -1.8346976324
 H          4.6290332688        2.6306515341       -1.3882436368
 H          2.9966572793        0.8462839976       -1.4468084550
 H          1.3581752170       -0.1069682512       -0.0221614264
 H         -1.3790827248       -0.1192964768       -0.0193213171
 H         -5.3489406741       -1.4154700256       -1.3793426788
 H         -7.0163622514        0.3373482764       -1.3796583964
  66
        -88.32809419
 C         -8.1039406535        2.5379295386        1.0851171366
 C         -6.9372164837        2.7768231091        0.1230483909
 C         -6.2042202273        4.0505847960        0.5683222028
 C         -7.5120823629        2.9741420732       -1.2866368151
 C         -5.9482842586        1.6223078188        0.1013923823
 C         -4.8278565901        1.6948353064       -0.7233382583
 C         -3.8905845699        0.6837184853       -0.7596609172
 C         -4.0357597697       -0.4550057917        0.0289978651
 C         -3.0167997651       -1.5140388425        0.0128500553
 C         -3.3910539428       -2.8645968091        0.0271586775
 C         -2.4588534707       -3.8829518767        0.0132042497
 C         -1.1167817379       -3.5352022184       -0.0080727227
 N          0.0036352426       -4.3285784898       -0.0202093236
 C          1.1218518053       -3.5321958467       -0.0370945476
 C          2.4649281922       -3.8763288818       -0.0509932650
 C          3.3944121209       -2.8554936404       -0.0599783533
 C          3.0164887911       -1.5058132342       -0.0627728447
 C          4.0333859135       -0.4446837567       -0.0700994798
 C          3.8657957103        0.6967008010       -0.8504495471
 C          4.8030580052        1.7084673736       -0.8364441987
 C          5.9457511248        1.6340527860       -0.0430389709
 C          6.9362411319        2.7874580380       -0.0474808528
 C          8.1252047010        2.5490884270        0.8870591746
 C          7.4770221784        2.9799964715       -1.4712377704
 C          6.2166218775        4.0637357390        0.4118725393
 C          6.1140098238        0.4889245862        0.7256395959
 C          5.1796909189       -0.5310954647        0.7115300822
 C          1.6689694179       -1.1684469679       -0.0528677621
 C          0.7189901430       -2.1765299629       -0.0366154521
 C         -0.7176091799       -2.1784760018       -0.0182996261
 C         -1.6704012522       -1.1730279490       -0.0113899764
 C         -5.1603793007       -0.5400990907        0.8415541431
 C         -6.0948773305        0.4793085148        0.8777222426
 H         -8.7752851115        3.3941410839        1.0604580822
 H         -7.7500592598        2.4183594900        2.1065570234
 H         -8.6732959584        1.6565664679        0.7989643162
 H         -6.8974105565        4.8883748311        0.6091848322
 H         -5.7736174789        3.9094219932        1.5577107176
 H         -5.4017081854        4.3062135337       -0.1180238745
 H         -6.7308674329        3.2102360256       -2.0038182713
 H         -8.0155406168        2.0679871086       -1.6175172826
 H         -8.2324118035        3.7897475715       -1.2872228162
 H         -4.6755596438        2.5585140009       -1.3538277946
 H         -3.0399661459        0.7685055293       -1.4208088421
 H         -4.4422906549       -3.1127300396        0.0283651376
 H         -2.7674079203       -4.9183338044        0.0166512237
 H          0.0050721290       -5.3338653405       -0.0141501289
 H          2.7762584755       -4.9108092258       -0.0561999800
 H          4.4459324649       -3.1009179869       -0.0864283965
 H          2.9975924504        0.7830108489       -1.4880984755
 H          4.6331981323        2.5738497200       -1.4599704269
 H          7.7953636918        2.4296774806        1.9165561125
 H          8.7955875520        3.4054608884        0.8464170061
 H          8.6880712314        1.6678902271        0.5878702653
 H          7.9713365359        2.0721606849       -1.8113082647
 H          6.6785939458        3.2144124198       -2.1698283602
 H          8.1980158729        3.7947904609       -1.4918391853
 H          5.8096637661        3.9261301874        1.4116326755
 H          6.9125669445        4.8998376582        0.4340888089
 H          5.3986315698        4.3198221282       -0.2556617340
 H          6.9796293480        0.3749446308        1.3581637709
 H          5.3329698405       -1.3978811167        1.3386800019
 H          1.3643825201       -0.1329459639       -0.0332721606
 H         -1.3683792920       -0.1366367807       -0.0008369859
 H         -5.2957354657       -1.4050093837        1.4753979060
 H         -6.9428580449        0.3668252724        1.5340595409
  66
        -88.32742502
 C         -7.1831855584        3.2347080513       -1.4962410248
 C         -7.1126672117        2.6774073207       -0.0672778628
 C         -8.4609944196        2.0497277091        0.3130248241
 C         -6.8458055824        3.8439439135        0.8874617968
 C         -6.0302465041        1.6112974218       -0.0080907838
 C         -6.1413181366        0.4729673464       -0.8034847978
 C         -5.1820012913       -0.5187421603       -0.7859999227
 C         -4.0576385123       -0.4101184048        0.0278769644
 C         -3.0234380072       -1.4546527548        0.0433052172
 C         -3.3915528560       -2.8070532270        0.0387261524
 C         -2.4544711116       -3.8200797686        0.0551711717
 C         -1.1146929546       -3.4642428162        0.0674755730
 N          0.0067923847       -4.2549883154        0.0739182989
 C          1.1225908717       -3.4563665450        0.0738274471
 C          2.4649476833       -3.8025014922        0.0722761317
 C          3.3946732143       -2.7828375070        0.0656136643
 C          3.0179464206       -1.4324265164        0.0567973579
 C          4.0473762773       -0.3835255323        0.0342435155
 C          5.2113187198       -0.4940729069        0.7887214984
 C          6.1759114206        0.4940507632        0.7589720881
 C          6.0233921526        1.6384405572       -0.0182381232
 C          7.1148752976        2.6961579739       -0.0797750714
 C          6.5546113510        4.0709260144       -0.4634145630
 C          7.8262273471        2.8422492398        1.2719663277
 C          8.1316361184        2.2541522918       -1.1425187577
 C          4.8630526239        1.7388614729       -0.7789538932
 C          3.8944326613        0.7539722689       -0.7521555179
 C          1.6704905845       -1.0934179650        0.0591938151
 C          0.7183423179       -2.1007961764        0.0689067748
 C         -0.7195820599       -2.1058725694        0.0679465394
 C         -1.6788955706       -1.1054375428        0.0608528067
 C         -3.9408548577        0.7250034630        0.8223679538
 C         -4.9089570086        1.7123525470        0.8063285615
 H         -7.9415114175        4.0124879349       -1.5589488260
 H         -7.4328627365        2.4567884129       -2.2123743667
 H         -6.2241736504        3.6634669004       -1.7800640366
 H         -8.7360823884        1.2542363251       -0.3738466806
 H         -8.4111998914        1.6317696146        1.3165663475
 H         -9.2450337552        2.8041277730        0.2911860590
 H         -6.8046388302        3.5027376781        1.9195005061
 H         -5.9138394770        4.3470790101        0.6401443031
 H         -7.6515162823        4.5710306297        0.8053938720
 H         -6.9920427362        0.3520455145       -1.4579663963
 H         -5.2935008748       -1.3797940462       -1.4295759430
 H         -4.4416307290       -3.0599398292        0.0430520977
 H         -2.7566445816       -4.8573256956        0.0591414933
 H          0.0098275443       -5.2602544165        0.0780846353
 H          2.7746652188       -4.8375567399        0.0707931861
 H          4.4459079401       -3.0295721186        0.0432282822
 H          5.3557732648       -1.3564409107        1.4241667558
 H          7.0607180678        0.3591727704        1.3615865672
 H          6.1986141217        4.0861996089       -1.4900916198
 H          7.3362192638        4.8230873201       -0.3769744223
 H          5.7365453603        4.3487333947        0.1977766236
 H          7.1024637820        3.0048800783        2.0677243838
 H          8.4175795614        1.9630622408        1.5121405601
 H          8.5030197359        3.6937907844        1.2429189107
 H          7.6493089727        2.1615564716       -2.1133866955
 H          8.9364467882        2.9821221693       -1.2221243039
 H          8.5604419308        1.2887678261       -0.8824662134
 H          4.6988763381        2.5945858829       -1.4140365203
 H          3.0138510655        0.8598736954       -1.3692074733
 H          1.3671455533       -0.0573871021        0.0712536405
 H         -1.3841030042       -0.0669175909        0.0468866962
 H         -3.0887518695        0.8288649986        1.4789851612
 H         -4.7717571102        2.5675422227        1.4482350994
