56
 energy: -95.511116612951 gnorm: 0.000075302663 xtb: 6.7.1 (edcfbbe)
N            6.99898536684213       -1.70800922817670       -0.83615305441879
C            6.02760722435925       -1.10856073243451       -0.73274270141996
C            4.83082724952207       -0.36609188509118       -0.60531618553689
C            3.75463365314513       -0.62629274031551       -1.45392805450409
C            2.58470461668872        0.09137029734330       -1.31708873802756
C            2.46923643279502        1.07350599278323       -0.33526546377035
C            1.20490060583539        1.80995362374441       -0.15286434956477
C            1.19753095025833        3.19608451485736       -0.12641703316332
C           -0.00326377917163        3.88842458479077        0.02162892873766
C           -0.00461720585222        5.30247371730358        0.02953888426127
N           -0.00584661516715        6.44851640700010        0.03610590682247
C           -1.20297438933943        3.19266257875999        0.16227371305991
C           -1.20827210656514        1.80631817351657        0.17274355947142
C           -2.47122784567824        1.06611371391394        0.34930150945893
C           -3.56213054853449        1.34657217232920       -0.47034677336215
C           -4.73443643413447        0.63060981182452       -0.34771410766618
C           -4.83123688236117       -0.37752427172276        0.61150508749536
C           -6.02753395574779       -1.12139320816253        0.73523731697672
N           -6.99860903821347       -1.72179345045415        0.83579003983097
C           -3.75210922310691       -0.64644329125535        1.45364377619574
C           -2.58296063773276        0.07320777743668        1.32068070870831
C           -0.00125665439025        1.11152913297771        0.00543395008792
N           -0.00055201559384       -0.29608439703061       -0.00392974755851
C            0.65818505582527       -1.01236080882906        0.99942908093459
C            1.26622097501662       -0.38468718387038        2.07838726657805
C            1.93314156508082       -1.12347730377679        3.04382009886015
C            1.98523473186574       -2.49942997450436        2.95423442024396
C            1.33580686880235       -3.14330787604747        1.91150148416561
C            0.66707344159546       -2.41150097428575        0.94780939622270
O            0.00560736886094       -3.11568839732507       -0.02583365833240
C           -0.65947480381139       -2.39932308097120       -0.98808966061634
C           -1.32526794518893       -3.11911468152242       -1.96281420745549
C           -1.97809562746910       -2.46212632119654       -2.99518799110462
C           -1.93240050733719       -1.08472402610306       -3.06330851155107
C           -1.26836033769299       -0.35798277246760       -2.08680093916233
C           -0.65685078238350       -0.99950197420471       -1.01799577128583
C            3.55746400460801        1.34584549625277        0.49067325651497
C            4.73053898176625        0.63183505581488        0.36415040925982
H            3.84313191552684       -1.38959833616697       -2.21256053962339
H            1.75964022536747       -0.10226292603615       -1.98709250813884
H            2.12085219631454        3.74227683718616       -0.25142585950437
H           -2.12701363621021        3.73604478126947        0.29402147759717
H           -3.48093417271058        2.11872910128929       -1.22133902606913
H           -5.57657130322427        0.84073190782048       -0.98994055723623
H           -3.83776553611926       -1.41786887638826        2.20434850565699
H           -1.75562961847390       -0.12724651692351        1.98585624003677
H            1.21041405767802        0.68861224113765        2.17439291661079
H            2.40585454541927       -0.61054189334594        3.86689063299026
H            2.51040064971701       -3.07847206285182        3.69676842296119
H            1.33063854253716       -4.21829287660840        1.83111338680931
H           -1.31503559101355       -4.19518657403866       -1.89918422654583
H           -2.50081664672804       -3.03195891473958       -3.74652256284751
H           -2.40784252751751       -0.56120006980276       -3.87810173333682
H           -1.21742498353907        0.71687530212665       -2.16638780725276
H            3.47339465566113        2.10980766678918        1.24969206573027
H            5.57048539028620        0.83549794446269        1.01130673788289
