56
 energy: -95.428578190584 gnorm: 0.000067409174 xtb: 6.7.1 (edcfbbe)
N            7.04174701568381       -1.67331004424312        0.81002867909151
C            6.07003476804292       -1.06743925954693        0.71944645410734
C            4.87429086247204       -0.33324078810633        0.60353458814775
C            3.77022026316492       -0.65843688589517        1.39975893658736
C            2.59365109150034        0.04093773471595        1.26358875810921
C            2.48021228710550        1.07932370579449        0.33246411833977
C            1.21769834881342        1.79996916373089        0.14192087875838
C            1.19726475762872        3.17989321092908        0.11941128962443
C           -0.01544435988235        3.87844281823913       -0.00012780540814
C           -0.02077470496483        5.28172922100164        0.00015360203547
N           -0.02506869992034        6.43245502692331        0.00043304598303
C           -1.22265768763848        3.17077140837090       -0.12012721188798
C           -1.23274131844177        1.79065358773680       -0.14231032240523
C           -2.48935901766617        1.06046845460515       -0.33468273823092
C           -2.59256707802230        0.01954978728668       -1.26424654331452
C           -3.76376300723737       -0.68824711467329       -1.40295902147635
C           -4.87272877760080       -0.36930688136997       -0.61097365893864
C           -6.06299113773421       -1.11189495791152       -0.72964408986324
N           -7.03024400011255       -1.72454109302091       -0.82261710506677
C           -4.79021844246707        0.69430167942628        0.29530296058640
C           -3.61576249361433        1.39807902761559        0.42327572767755
C           -0.00491900395700        1.09778217099737        0.00050434920568
N            0.00062686139452       -0.31484738631915        0.00213541836581
C           -0.66992032410253       -1.00588222766328        0.98243620483764
C           -1.31629063225092       -0.36961173258898        2.05088372137225
C           -2.02776915570875       -1.09987070043058        2.97038480791997
C           -2.10504534492728       -2.49884848237099        2.86813440326497
C           -1.42301745409339       -3.15533039939788        1.86946417555045
C           -0.68988505812770       -2.43169603918790        0.93266496146158
O            0.01891310276082       -3.11538806408932        0.00962267351100
C            0.71817453667302       -2.42755243464606       -0.91758903182626
C            1.46141502226184       -3.14624721935321       -1.85009646504421
C            2.13440342482750       -2.48604081541169       -2.85249582144514
C            2.03774013119165       -1.08880990878962       -2.96276409575594
C            1.31662239552214       -0.36322321707091       -2.04720872519238
C            0.67900544068564       -1.00238032934586       -0.97510589183432
C            3.60173031988110        1.42353848511603       -0.42964455955035
C            4.78150157639291        0.72819741580951       -0.30425160797416
H            3.85202961298719       -1.45808066989160        2.12144521750418
H            1.75916453341475       -0.19814347179454        1.90814015504147
H            2.11630385517959        3.73351652098798        0.23915344116938
H           -2.14574422275099        3.71746509849517       -0.24061129978870
H           -1.75449580499765       -0.21475264951711       -1.90586183208522
H           -3.83766734793088       -1.48963607981758       -2.12356263228096
H           -5.65177121946538        0.94971579614774        0.89418075997898
H           -3.55022350652159        2.20723860476020        1.13594526410818
H           -1.24209535810843        0.70131336148134        2.14903214921205
H           -2.52694442264773       -0.59604565995048        3.78205066643766
H           -2.67925224924108       -3.05866282063128        3.58786200477669
H           -1.42974607363301       -4.23045912957000        1.79062045375410
H            1.48312893545674       -4.22071173893026       -1.76514254532891
H            2.71641449743749       -3.04192618639501       -3.56898160457003
H            2.52973307336788       -0.58284880926550       -3.77748331284128
H            1.22778967539059        0.70608709980771       -2.15104078168791
H            3.52816996181603        2.23101710656899       -1.14343202063848
H            5.63933505383393        0.98857908457331       -0.90631737296521
