67
 energy: -107.733943614495 gnorm: 0.000062843266 xtb: 6.7.1 (edcfbbe)
O            2.15531339261429        0.80623384306774       -1.85545341657290
P            2.66471866066061        0.29520718575475       -0.56815278447273
C            1.91411892259412        1.07941998457570        0.88797653075084
C            1.49868683332251        2.39456495920368        0.73844535637577
C            0.94743884526865        3.07269795775680        1.81007134878321
C            0.80814241831410        2.43353653158008        3.03087168882593
C            1.22335607997491        1.12031653484287        3.18113212773466
C            1.78258004263157        0.44182464879583        2.11389106947544
C            4.45830525318402        0.51771149783532       -0.36972096172381
C            5.16874723587434        1.05574302469153       -1.43321324459575
C            6.53423260450864        1.25436827916610       -1.32344288702861
C            7.18674385612068        0.91826065331028       -0.14834677555928
C            6.47626171604482        0.38548171543768        0.91731952763240
C            5.11222666693473        0.18594962892003        0.81113158513112
C            2.37365316900863       -1.49424617182939       -0.37610588525346
C            3.33413231221886       -2.48320834992244       -0.53433699931266
C            2.99672074926248       -3.83281189089272       -0.47311898969694
C            1.69338253745585       -4.24389059638898       -0.26174782199307
C            0.71101635018842       -3.27251104809963       -0.10805455461080
C            1.06889316707581       -1.91169945282961       -0.16918947210688
O           -0.00161084159193       -1.09243482070631        0.00405407754858
C           -1.07162311796841       -1.91230140983011        0.17817730098580
C           -2.37718652745821       -1.49624199950032        0.38271392072681
P           -2.67543877737013        0.29226709143846        0.57288119696199
O           -2.18260592374871        0.80304695394354        1.86678419487981
C           -4.46734884343997        0.50926733917015        0.35400632305958
C           -5.19054378861531        1.05224150030490        1.40630943774509
C           -6.55514369717292        1.24738499887537        1.28032939323894
C           -7.19398130349111        0.90295077649636        0.10015231066140
C           -6.47071925460200        0.36526717262914       -0.95440517025704
C           -5.10756073792803        0.16918838199181       -0.83198687778368
C           -1.91150442127152        1.08248361034421       -0.87300671653941
C           -1.76601896477862        0.44953389776825       -2.09973829300554
C           -1.19795203420898        1.13317175135853       -3.15894201676725
C           -0.78837341932822        2.44714681839413       -3.00024265700820
C           -0.94185727345259        3.08178310331604       -1.77881521192087
C           -1.50135630968668        2.39829517523957       -0.71488448846926
C           -3.33643848999673       -2.48622659499093        0.54243637287432
C           -2.99741926083638       -3.83552190917664        0.48465689208495
C           -1.69341220627250       -4.24531159344485        0.27497452004382
C           -0.71228881474303       -3.27296535617500        0.11979214075615
H            1.60224836087758        2.86195286960808       -0.23123419353468
H            0.62202010696081        4.09632166237904        1.69322778121238
H            0.36678506967678        2.95644261087302        3.86642508241030
H            1.10454412959781        0.62175927418868        4.13213709212362
H            2.10013818869546       -0.58603991058567        2.22694345061980
H            4.63249987734044        1.31033574537857       -2.33692981373814
H            7.08766690010075        1.67177250307122       -2.15178252624971
H            8.25206000148460        1.07284599281050       -0.06067162823361
H            6.98788362387169        0.12733970910260        1.83291091138430
H            4.54946490489311       -0.22507919776824        1.63652844135682
H            4.36048391618385       -2.19127271787563       -0.70453085389099
H            3.77455784463850       -4.57106344923579       -0.59645028732264
H            1.44044926948538       -5.29158568337516       -0.21833819711984
H           -4.66484386882233        1.31326687409390        2.31437289873534
H           -7.11846351855145        1.66843490198275        2.10013916003811
H           -8.25859890906829        1.05468777272685       -0.00013291512963
H           -6.97168121997097        0.10037744256756       -1.87396376746300
H           -4.53495767712096       -0.24569053893005       -1.64865102399943
H           -2.07955875383919       -0.57878846539640       -2.21954272450798
H           -1.06770967068420        0.63804030019815       -4.11022640787489
H           -0.34015780427726        2.97419361215816       -3.82951489503828
H           -0.62083965153006        4.10604576923847       -1.65533362464212
H           -1.61555014617651        2.86200834894188        0.25540739140096
H           -4.36329990964707       -2.19505965532624        0.71100328134232
H           -3.77441085884451       -4.57447416655132        0.60909889263877
H           -1.43901601056197       -5.29274742668655        0.23390738388225
