67
 energy: -107.731964439434 gnorm: 0.000048855088 xtb: 6.7.1 (edcfbbe)
O            4.63065740727044       -0.13127943813079       -1.69880310796519
P            3.36430210360667       -0.01500739148011       -0.94834617897154
C            2.01111629585965        0.61569219032933       -1.98695501404350
C            1.63455622693681        1.94888692965608       -1.95046529897889
C            0.69805081231759        2.41962151117602       -2.85435507002347
C            0.14129055128317        1.56237433369596       -3.78814049266418
C            0.52234740837602        0.23098064651196       -3.82661421487567
C            1.46272073213865       -0.24138934707629       -2.93084884703039
C            3.50235391885131        1.04719931498654        0.51827103281585
C            4.74692901454071        1.59393715444495        0.80014301030580
C            4.91968164007290        2.37618518800809        1.92853581799851
C            3.84904517234513        2.60006035717175        2.77891531475198
C            2.60675883105834        2.05055680628955        2.49879959377994
C            2.42657692038078        1.27609724350155        1.36760191133023
C            2.82156343358676       -1.62681716734693       -0.29678671870798
C            3.78679986927907       -2.61159541386437       -0.12673931423169
C            3.47250320933241       -3.86998824025802        0.37316703738718
C            2.17229341484947       -4.19327839568659        0.71323259928333
C            1.18611887371841       -3.22909172804219        0.54491392535820
C            1.51922814832344       -1.95049569314535        0.05214804691319
O            0.42349337928294       -1.14717968068340       -0.04527907838419
C           -0.63351887138722       -1.90416116296672        0.34913761098333
C           -1.95868483019259       -1.49567112430066        0.36225294524484
P           -2.32388489638592        0.14632409568265       -0.34117156548101
O           -1.85391994927005        0.27878438505947       -1.73157526790082
C           -1.59964830729676        1.34991635524710        0.81156037559290
C           -1.20281214827114        2.56851529113697        0.27904170412739
C           -0.73078532456219        3.56704803931737        1.11182467649179
C           -0.66373746153974        3.34874223074016        2.47860916578222
C           -1.04604334339162        2.12626079349025        3.00989674597602
C           -1.51322274284994        1.12323957826480        2.17917393171463
C           -4.12415937978113        0.35992322944628       -0.18114597715307
C           -4.86130385075855        0.42516162848264       -1.35527938181999
C           -6.23428489275869        0.59143860692863       -1.30404896141472
C           -6.87015786122482        0.69359121873356       -0.07724151496969
C           -6.13401208709042        0.63505237037294        1.09672110166862
C           -4.76163759251834        0.47019907615045        1.04903342562441
C           -2.89782535381495       -2.42008440624352        0.79839304833944
C           -2.51962122049986       -3.69417900392789        1.21316205896606
C           -1.19816952101216       -4.09954115287581        1.18801187536904
C           -0.23974298353524       -3.19578855680036        0.74491723672631
H            2.07419519871098        2.60881796728007       -1.21429740897559
H            0.40363148545348        3.45930978734502       -2.83084457687168
H           -0.59540517500696        1.93071616093324       -4.48676390697984
H            0.08400155774180       -0.43769166774754       -4.55298300440743
H            1.78158709996386       -1.27669839064395       -2.95319150133533
H            5.56379376170633        1.39611919369044        0.11988403184153
H            5.88669322396273        2.80601438870783        2.14469715127319
H            3.98158020129612        3.20506891670181        3.66374388959418
H            1.77403343023580        2.22779363614593        3.16168496100997
H            1.45834250691393        0.85874228934871        1.13054505896964
H            4.80109476106656       -2.37134539064454       -0.41297604073801
H            4.25630753269396       -4.60306896602178        0.48774899368985
H            1.92147628566294       -5.17140990448241        1.09248743023998
H           -1.26465571796893        2.70637568277373       -0.79135815854234
H           -0.42093340477754        4.51539229309275        0.69820890625961
H           -0.30688529678275        4.13236635920390        3.13092244441557
H           -0.98307685020497        1.95435634624687        4.07495584927603
H           -1.80212939854339        0.16354937761376        2.58592093257460
H           -4.33885067374829        0.34681385046215       -2.29866867380383
H           -6.80644437573652        0.64079830555390       -2.21887982273372
H           -7.94160417232223        0.82291975963859       -0.03503798125449
H           -6.63207965829391        0.71894046053620        2.05155617005081
H           -4.18344203705429        0.42993035750138        1.96023289312026
H           -3.94108579000625       -2.14073978593843        0.81078877979823
H           -3.28167523278006       -4.38063289383218        1.54975060697998
H           -0.91401870634381       -5.09335626778312        1.49624212142555
