68
 energy: -98.678531941909 gnorm: 0.000070690295 xtb: 6.7.1 (edcfbbe)
C            3.93509529708458        5.08841534771415       -0.16539034950076
C            2.41425516233414        5.12379791049059        0.00908662011470
C            2.09877591491274        5.85246656720646        1.32520748110046
C            1.81642940724948        5.90874446024655       -1.16941771061764
C            1.79308719777563        3.74450387930135        0.04656314658134
C            0.38929038118807        3.61399670847845        0.18189444619122
C           -0.21053523087343        2.39180604683656        0.19325983656083
C            0.54758086910037        1.20176244749665        0.06097525704858
C            1.97039155575067        1.30832765263182        0.00077387083760
C            2.53659377889207        2.56513338095675       -0.01739920953676
C            2.84808193458519        0.08021346413772       -0.00694493275369
C            3.74312359227433        0.11990213347655        1.24829485203020
C            3.72252466913635        0.09680170202231       -1.27710245109013
C            2.04996672354568       -1.20122057286600       -0.00033653742772
C            2.69682337798450       -2.41935788040236        0.00907667966292
C            2.03062056762529       -3.64378783010091       -0.04193164508432
C            2.74039666230338       -4.98007957900967       -0.01145380692259
C            2.44904697032369       -5.73365993025855       -1.31895758708488
C            2.21586163574365       -5.79619960134155        1.18063653721735
C            4.25865986121492       -4.84566408238222        0.13495505708633
C            0.62004953403056       -3.60466278169662       -0.15449394199346
C           -0.05750619780119       -2.42307515661965       -0.16025341988278
C            0.62354359558719       -1.18716403604087       -0.04112524158414
N           -0.07313078831048       -0.01315201626025        0.00938596785471
C           -1.49043092226638       -0.05654499637371        0.00215089861556
C           -2.18818737365597       -0.57747011011453        1.11042034455764
C           -3.55556076017930       -0.61026488663292        1.10687067081763
C           -4.27076808452680       -0.13932379136016       -0.01306348980316
C           -5.75314005111793       -0.14213440246128       -0.00321885870006
F           -6.28137141140742       -1.13182640227814        0.74213866780095
F           -6.29610983416254       -0.26373343930989       -1.22995368985636
F           -6.28780844323499        1.00423226623175        0.50500387410769
C           -3.57283956877355        0.38499978963572       -1.12036841329506
C           -2.20577736883980        0.42723546404054       -1.11149199273117
H            4.21155891882802        4.58728757938199       -1.09039983266724
H            4.41545570957616        4.58765184962231        0.67223856270468
H            4.31759714051365        6.10597806674833       -0.20862584982222
H            1.02799198663237        5.96333459627561        1.46955310180960
H            2.50096805006721        5.29572669782450        2.16905390983295
H            2.54681665561577        6.84366955144808        1.31928364610281
H            0.74020776467884        6.01551404540105       -1.06989220572508
H            2.02340214508663        5.39550181434546       -2.10616474103465
H            2.25465431745535        6.90326918299108       -1.21581384378768
H           -0.22474184285055        4.49410258097453        0.28626353753343
H           -1.27960034505911        2.31849036709586        0.31381605030827
H            3.60963618663665        2.63563336717601       -0.07527419100279
H            4.41570201291566       -0.73251553067168        1.27101719435928
H            4.34059191524069        1.02666545899566        1.26664091683230
H            3.12512525985891        0.09649460716409        2.14350127987806
H            4.37654788930155       -0.76979050744000       -1.30595674793248
H            4.33849497670979        0.99064216670076       -1.31077125554036
H            3.08933000932292        0.07998440868391       -2.16179181568078
H            3.77291380823964       -2.41984854723941        0.05035077523113
H            2.96067201805590       -6.69360639678129       -1.31794843605097
H            2.79877217725896       -5.15587606026736       -2.17198108054263
H            1.38532128830686       -5.91465925879344       -1.44321538551644
H            2.71827688680512       -6.76007750173274        1.22282017269160
H            1.14716642083469       -5.97272873228203        1.10113112943224
H            2.40596016793145       -5.26603018943716        2.11151415151125
H            4.69014536124397       -4.31734533298419       -0.71229890217288
H            4.51893080885588       -4.32495500176968        1.05381902925102
H            4.70704367384592       -5.83617334640946        0.17301897494474
H            0.06207589098418       -4.52274075633483       -0.24573344322318
H           -1.13081216552105       -2.41991112838061       -0.26386677126237
H           -1.62793387102830       -0.93189197233721        1.96249396362434
H           -4.09768706830530       -0.99938570735130        1.95437562087964
H           -4.12785674189437        0.74352836507739       -1.97298315295405
H           -1.65827274041928        0.81694525163611       -1.95642790249209
