68
 energy: -98.782815905510 gnorm: 0.000036851939 xtb: 6.7.1 (edcfbbe)
C            2.73300624470260        5.71898341907128       -1.26143776957474
C            3.10758946278055        4.62239965077699       -0.26090552227550
C            4.54382969322928        4.17123273899012       -0.56226219133363
C            3.03471424985884        5.22016617252384        1.15135626129771
C            2.18139423508942        3.41873294628281       -0.33955093594670
C            1.12921643728998        3.33117704641706       -1.24063607003549
C            0.31281743938508        2.21524403666357       -1.27360529906610
C            0.51717545670909        1.17144036281438       -0.38483816492094
C            1.59056766348816        1.21686091895345        0.50874723756238
C            2.39839064394044        2.33943587419238        0.51413881956993
C            1.79517224711285        0.00804822423390        1.40632392549211
C            0.70579525805861        0.00223932631961        2.49754319801803
C            3.15739326501367        0.01494080836914        2.09947936583078
C            1.60291790537232       -1.20257985252014        0.50846485601505
C            2.42201137074793       -2.31696254911702        0.51367605503204
C            2.21565534588228       -3.39840053351867       -0.33994135314935
C            3.15364331547635       -4.59289530602758       -0.26123697281300
C            3.08689590953667       -5.19101007578420        1.15118218223743
C            4.58534328433658       -4.12776838106459       -0.56297353382207
C            2.78955314771252       -5.69332343435672       -1.26142208657847
C            1.16254106621324       -3.32137106021583       -1.24090399305144
C            0.33500579296822       -2.21367571379004       -1.27375252381664
C            0.52901476451560       -1.16790845459979       -0.38497532263970
N           -0.26586416564292       -0.00222586551908       -0.42854994955710
C           -1.63295082998709       -0.00924066514312       -0.29531780357631
C           -2.34546981236215       -1.21370496484585       -0.18578320645184
C           -3.71536827423587       -1.22004070163508       -0.05482070609199
C           -4.42229947463890       -0.02372606814232       -0.01597298684424
C           -5.90776270581128       -0.03093609547657        0.14073170884262
F           -6.49044395037755       -1.11250647062280       -0.40525294777051
F           -6.50173183803519        1.03908663605484       -0.41597734959873
F           -6.29277351026075       -0.02638767288049        1.43859176801086
C           -3.72789590641815        1.17990002951231       -0.05596630874262
C           -2.35801344785044        1.18781932095482       -0.18689534030287
H            1.72537706287132        6.08603712618109       -1.08102881668160
H            2.80398100857021        5.35670678075476       -2.28432715817961
H            3.41930135421807        6.55652375984072       -1.15441226589024
H            4.89367903269561        3.44369789208906        0.16480022041744
H            4.59553140438253        3.71779384504789       -1.54995513908707
H            5.21691422186321        5.02553363141546       -0.53871324336326
H            2.01469108488883        5.52236455765684        1.37934723464780
H            3.67740338746098        6.09510600883482        1.22087491376845
H            3.35408595986996        4.50448202805432        1.90377424999054
H            0.93387271218390        4.12338806583624       -1.94380888513238
H           -0.47635145136873        2.14672965822417       -2.00748927452046
H            3.22517636833936        2.38309323018480        1.20267475855234
H            0.80548880869080        0.88704871497290        3.12294097282813
H           -0.29370767701183       -0.00291144459224        2.07200961761517
H            0.81470811408411       -0.88167440963775        3.12267516183361
H            3.96643723911486        0.01926854806321        1.37222945688056
H            3.25740056492791       -0.85930301233378        2.73812476853892
H            3.24835036656870        0.88991691740093        2.73847430030212
H            3.24937755194255       -2.35228171054234        1.20199569147494
H            3.39946979945769       -4.47207720545880        1.90336055327997
H            3.73806203392035       -6.05965455682061        1.22077101538459
H            2.06989937807977       -5.50302897706219        1.37946103983720
H            5.26659229422730       -4.97560493497202       -0.54044678792512
H            4.92857346681699       -3.39749086466007        0.16450061721669
H            4.63218719179382       -3.67308049348845       -1.55033305667588
H            2.85728023735344       -5.33077453771772       -2.28443633313694
H            3.48367465487136       -6.52432985447894       -1.15396368544950
H            1.78539716302983       -6.06978661825770       -1.08102753207592
H            0.97503766980114       -4.11549339318921       -1.94405244190866
H           -0.45497742727366       -2.15307649225195       -2.00745908236424
H           -1.81736253110226       -2.15288628863107       -0.17717980436790
H           -4.24389743862146       -2.15815163753145        0.01915013237453
H           -4.26629246240800        2.11246596251940        0.01703423308432
H           -1.83977816318147        2.13248376566890       -0.17914292277389
