  68
        -98.67506248
 C          3.9391870448        5.0881884983       -0.1583185795
 C          2.4178565048        5.1248959919        0.0112122196
 C          2.0990625430        5.8567543065        1.3248978387
 C          1.8235373187        5.9076962561       -1.1706784796
 C          1.7955135485        3.7465005010        0.0488505929
 C          0.3931553655        3.6170292498        0.1881411733
 C         -0.2080413800        2.3947991428        0.1999934163
 C          0.5481809751        1.2044587652        0.0617210427
 C          1.9701495211        1.3101446549       -0.0011456860
 C          2.5376827540        2.5666657919       -0.0189194306
 C          2.8471084870        0.0818226445       -0.0128854070
 C          3.7497809033        0.1207866322        1.2368831480
 C          3.7149741278        0.0982301326       -1.2878108160
 C          2.0486201081       -1.1990499395       -0.0025845593
 C          2.6953273703       -2.4173479323        0.0077421663
 C          2.0287611539       -3.6417517251       -0.0417599278
 C          2.7374542753       -4.9780586688       -0.0066551533
 C          2.4417426500       -5.7398936157       -1.3085435113
 C          2.2156900360       -5.7861351846        1.1924359832
 C          4.2562316252       -4.8444124175        0.1340009425
 C          0.6192716843       -3.6022077146       -0.1568174654
 C         -0.0582642859       -2.4201419073       -0.1647748467
 C          0.6225494905       -1.1842360436       -0.0428489744
 N         -0.0744188518       -0.0100784758        0.0097580077
 C         -1.4903233940       -0.0532244012        0.0040876378
 C         -2.1875283144       -0.6018674583        1.1003332625
 C         -3.5544234479       -0.6401534279        1.0954691181
 C         -4.2716185981       -0.1473395670       -0.0142026342
 C         -5.7531994489       -0.1589772883       -0.0085650479
 F         -6.2784163774       -1.1554984655        0.7294737733
 F         -6.2918839942       -0.2765231245       -1.2381146271
 F         -6.2975865821        0.9819328302        0.5036173703
 C         -3.5749201187        0.4065363592       -1.1085133741
 C         -2.2084523396        0.4543353962       -1.0981775975
 H          4.2184881144        4.5873869948       -1.0826295696
 H          4.4164016942        4.5868243756        0.6807284550
 H          4.3224532295        6.1054655326       -0.1998958975
 H          1.0280703148        5.9713914612        1.4647497357
 H          2.4961913794        5.3003445450        2.1713323923
 H          2.5502645785        6.8465610385        1.3187628784
 H          0.7466560073        6.0123488124       -1.0757153628
 H          2.0355611748        5.3941310665       -2.1061348798
 H          2.2602245935        6.9029351823       -1.2158015361
 H         -0.2203061914        4.4972934192        0.2953757058
 H         -1.2764987275        2.3226967619        0.3257987320
 H          3.6106013847        2.6361332560       -0.0796601453
 H          4.4268753639       -0.7281323366        1.2513734143
 H          4.3426468357        1.0305131979        1.2557284335
 H          3.1372363552        0.0901474514        2.1355584065
 H          4.3635059587       -0.7721532243       -1.3235781321
 H          4.3358202053        0.9887203303       -1.3212329830
 H          3.0768363261        0.0886023136       -2.1689938773
 H          3.7714291271       -2.4180606131        0.0479792464
 H          2.9525678131       -6.7001509896       -1.3021947721
 H          2.7898281980       -5.1685531692       -2.1664733728
 H          1.3774502565       -5.9208709109       -1.4287456750
 H          2.7172730969       -6.7501932524        1.2394522728
 H          1.1466417843       -5.9620772119        1.1165691182
 H          2.4083994583       -5.2502419911        2.1196350085
 H          4.6850606356       -4.3193495504       -0.7166891435
 H          4.5202214869       -4.3206268881        1.0500051578
 H          4.7038635464       -5.8352279669        0.1741678003
 H          0.0608584889       -4.5199288594       -0.2491785684
 H         -1.1309570797       -2.4173941032       -0.2734354301
 H         -1.6262532896       -0.9717258759        1.9451908138
 H         -4.0951607088       -1.0500822229        1.9340169249
 H         -4.1312774649        0.7820961949       -1.9528790534
 H         -1.6622572604        0.8635846896       -1.9346898289
