45
 energy: -63.689927220244 gnorm: 0.000064252320 xtb: 6.7.1 (edcfbbe)
C            2.87665009740263       -3.04856060265008       -1.01475473242268
C            2.40857252900241       -2.17956184953501       -1.98472988956243
C            1.46859970900606       -1.21690596532691       -1.66397776416435
C            0.96568929909282       -1.11669955363202       -0.37170314023068
C           -0.00000125593456        0.00000289843710       -0.00000218987976
C           -0.96586594438335        0.37167509796090       -1.11656253762639
C           -1.46876164177654        1.66395598411800       -1.21677266901932
C           -2.40877790915512        1.98469457229529       -2.17939516911763
C           -2.87692517222824        1.01469920110864       -3.04833271393970
C           -2.40901170573028       -0.28263125287404       -2.93388668867119
C           -1.46899676432389       -0.60280487165340       -1.97107567696657
C           -0.96573871557008       -0.37158919393191        1.11668549581821
C           -1.46878354774009       -1.66381190488267        1.21691494915451
C           -2.40876052760969       -1.98445456627742        2.17960679844427
C           -2.87672363963410       -1.01441815651891        3.04859907534790
C           -2.40867133738030        0.28286032863246        2.93412563728311
C           -1.46869020188924        0.60293239759359        1.97125198547799
C            0.96585937021622        1.11659511526465        0.37160158748125
C            1.46892055199298        1.21674068770401        1.66382699923543
C            2.40900024988609        2.17932583135643        1.98448871627000
C            2.87704249357867        3.04829508915394        1.01447027094391
C            2.40897769682635        2.93390051509104       -0.28281001443810
C            1.46889692494811        1.97112911528752       -0.60290384827070
C            1.46877275866983       -1.97125713048253        0.60276300798183
C            2.40873878044918       -2.93411077489872        0.28257658948038
H            3.60842089224913       -3.80218428579337       -1.26561051023147
H            2.77955274596599       -2.24716846755262       -2.99715849084027
H            1.12264800694987       -0.53896461015842       -2.43019400152449
H           -1.12271098808544        2.43020570613224       -0.53892171822543
H           -2.77978231581231        2.99711465053125       -2.24697855250450
H           -3.60880982268991        1.26552210330987       -3.80185579398803
H           -2.78019044141088       -1.05262047887552       -3.59460551074483
H           -1.12311089555463       -1.62248910411445       -1.88753873419699
H           -1.12287002246893       -2.43009471822594        0.53902954593421
H           -2.77982805779859       -2.99684850706567        2.24725332194777
H           -3.60853112268169       -1.26518007891646        3.80221853143147
H           -2.77971122588962        1.05288293900000        3.59488541316513
H           -1.12276007149663        1.62259713205659        1.88763947706079
H            1.12294701246323        0.53886432114557        2.43008951483512
H            2.78008590596636        2.24689936328025        2.99688057349813
H            3.60892511459813        3.80183587236953        1.26524739747238
H            2.78005839071377        3.59465740174592       -1.05281443201321
H            1.12293283652733        1.88759415650334       -1.62256244170772
H            1.12290584326555       -1.88770023247778        1.62245303408990
H            2.77981511747699       -3.59492217423246        1.05253729793300
