45
 energy: -63.582279825937 gnorm: 0.000025488604 xtb: 6.7.1 (edcfbbe)
C            2.67714550157294        2.06638623305489        2.73499269673082
C            2.25899033069317        0.77601012227650        3.01388907092764
C            1.42227995338500        0.11085957022443        2.13666786191483
C            0.98828335440320        0.73367549148976        0.97108936065720
C            0.12863456162407       -0.00016860918697       -0.00016693768433
C           -1.19630138938166       -0.62925626464734        0.47744352884790
C           -1.57638665081682       -1.93007293581273       -0.07968417447253
C           -2.18080868200715       -2.88739283185095        0.67444738301337
C           -2.49715324580537       -2.67056648200421        2.02122772980370
C           -2.17708178605702       -1.43521972481526        2.59776238243036
C           -1.57250644362101       -0.44893792457389        1.88205576975193
C           -1.19733788077301        0.63010523509484       -0.47331312681883
C           -1.57437383103999        1.93126482831626        0.08508548957433
C           -2.18047505527475        2.88912622493861       -0.66700867631802
C           -2.50154748491260        2.67258399589923       -2.01271603775686
C           -2.18451161331016        1.43695737872220       -2.59032687608862
C           -1.57841631254628        0.45013259172524       -1.87665640984816
C            0.98435231015166       -0.73477547606592       -0.97431344571364
C            1.41497600465783       -0.11234064917760       -2.14134618025852
C            2.24813466636486       -0.77823200892133       -3.02138147920118
C            2.66607806711619       -2.06898098708854       -2.74389537440683
C            2.24924551972875       -2.69036962923475       -1.57863428113488
C            1.41613876518401       -2.02748156582550       -0.69629064585171
C            1.42028451566679        2.02599562416096        0.69160748336110
C            2.25694661299505        2.68814370395579        1.57113838077004
H            3.32966800318499        2.58513526783734        3.42158390459108
H            2.58574615448983        0.28497800626565        3.91889860008323
H            1.09447535883679       -0.89470501818999        2.35644419298526
H           -1.33934758220211       -2.13765141797057       -1.11014963654160
H           -2.42907713626646       -3.83672046519113        0.22083819589748
H           -2.98455547394168       -3.43726208831547        2.60105112106156
H           -2.42247281894719       -1.25842948534029        3.63562453331319
H           -1.33245667250375        0.48483392128282        2.36328545259047
H           -1.33367860055781        2.13863069852831        1.11474614944515
H           -2.42637372419505        3.83867235743308       -0.21256470972006
H           -2.99022787154110        3.43970885738623       -2.59089189416943
H           -2.43360536399635        1.26036549389045       -3.62733825874115
H           -1.34083529268622       -0.48385769091533       -2.35868684485918
H            1.08733199292060        0.89351801274379       -2.36001303621728
H            2.57228249725445       -0.28748516244178       -3.92748279677315
H            3.31582153888583       -2.58830841865531       -3.43268131173786
H            2.57426171142051       -3.69612666972019       -1.35559570071658
H            1.08939084368882       -2.51403464274438        0.21113486675953
H            1.09091894360682        2.51283702750917       -0.21471639296246
H            2.58211013066658        3.69360865435295        1.34699902150752
