45
 energy: -63.690060461472 gnorm: 0.000027571899 xtb: 6.7.1 (edcfbbe)
C            2.88031676488767        2.01189303239401        2.49989269460982
C            2.59635530886786        0.66942399074813        2.68608204473028
C            1.65513995883600        0.04184906585177        1.89227182760834
C            0.96500983382336        0.74691664908240        0.91047141762461
C           -0.00011124810496       -0.00036546115963        0.00029029637036
C           -0.96244431399767       -0.91227491367231        0.74901108799055
C           -1.65257209595933       -1.89427799533281        0.04416967806299
C           -2.59143885798979       -2.69012118764473        0.67262306280196
C           -2.87298980952544       -2.50587181340923        2.01587847760747
C           -2.21722007913356       -1.51023718100298        2.71691871216644
C           -1.27475846842490       -0.71483518631726        2.08757517127212
C           -0.96427664996931        0.91226185907577       -0.74524432124981
C           -1.65135797826641        1.89477150439785       -0.03814129525664
C           -2.59092694267284        2.69202722146904       -0.66375275463973
C           -2.87630744459804        2.50866949398603       -2.00631872884096
C           -2.22392446068565        1.51226045054416       -2.70941316320764
C           -1.28078636789746        0.71542751900597       -2.08291211938068
C            0.96141584943527       -0.74817014980162       -0.91324120948514
C            1.64806882647279       -0.04356894748607       -1.89780908424797
C            2.58571408760176       -0.67177463045873       -2.69533091494013
C            2.86975474578373       -2.01434819118034       -2.51003143396955
C            2.21784892589438       -2.71495704745754       -1.51154687798988
C            1.27644851296265       -2.08595946311113       -0.71466056714108
C            1.27978594037377        2.08464044965309        0.71101929212596
C            2.22458528255391        2.71306577903808        1.50432071452162
H            3.61534496968434        2.50406542017133        3.11947858059167
H            3.11467683117713        0.10658211123004        3.44876062809915
H            1.45372203613146       -1.00999989147160        2.03400092126212
H           -1.45283925494097       -2.03457251344705       -1.00819457368756
H           -3.10980184604526       -3.45286888732316        0.10991049839008
H           -3.60616196342194       -3.12708326840544        2.50876784908581
H           -2.44127782813938       -1.34564311149655        3.76096148840328
H           -0.78127055875160        0.06361155016020        2.65060287242369
H           -1.44858040369501        2.03441890054990        1.01372660897488
H           -3.10678913895476        3.45522779532043       -0.09935852372238
H           -3.60979307549061        3.13119804117795       -2.49707548196701
H           -2.45108696862254        1.34824769433114       -3.75287522222991
H           -0.79006061436199       -0.06362021726005       -2.64750854017754
H            1.44664378237072        1.00836653906359       -2.03885701973135
H            3.10115545243161       -0.10935940201807       -3.46027608181770
H            3.60196155641011       -2.50700924103208       -3.13255527341778
H            2.44407749979997       -3.75837358537962       -1.34595631130647
H            0.78580235974613       -2.64864000857280        0.06582374656840
H            0.78636129086996        2.64772551917855       -0.06741536256047
H            2.45055299749315        3.75643487341122        1.33807614308946
