  40
        -70.20672804
 C          5.4908164276       -1.3733162326       -1.9219830205
 C          4.4864164060       -0.7052296133       -1.0505761859
 N          3.2404544979       -0.8913334828       -1.2224942306
 C          2.3592674632       -0.2423160661       -0.3840031149
 C          0.9905632827       -0.4248476267       -0.5592899760
 C          0.0946898420        0.2285950789        0.2741876768
 N         -1.2875266623        0.0463951501        0.1091400291
 C         -1.8630397824       -1.2270969832        0.2088350318
 C         -1.1200238488       -2.3605807045        0.5141894702
 C         -1.7262525531       -3.6033905630        0.6151016916
 C         -3.0868908685       -3.7346891706        0.4245877976
 C         -3.8486231739       -2.6084050470        0.1550895797
 C         -3.2490699057       -1.3657263278        0.0574519268
 O         -4.0785944734       -0.2973553453       -0.1698478806
 C         -3.5008159087        0.9412764446       -0.2783434593
 C         -4.3466041881        2.0040084012       -0.5400239080
 C         -3.8355400501        3.2823582020       -0.7022644892
 C         -2.4721818578        3.4834221666       -0.6243755430
 C         -1.6206187618        2.4215914278       -0.3607948626
 C         -2.1199098167        1.1413962664       -0.1548138284
 C          0.5668439143        1.0742671396        1.2902874753
 C          1.9160727804        1.2625461703        1.4670218841
 C          2.8267486480        0.6086284745        0.6339109927
 C          4.2629253253        0.7876683942        0.7953578111
 O          4.8145358501        1.4730548361        1.6131859760
 O          5.0426622335        0.0816434382       -0.1036706883
 H          6.1635440158       -1.9731583227       -1.3121036054
 H          4.9811225859       -1.9999977005       -2.6456630757
 H          6.0881553776       -0.6207553495       -2.4332907476
 H          0.6472933552       -1.0673844495       -1.3542651891
 H         -0.0589500934       -2.2746376408        0.6863585475
 H         -1.1215533057       -4.4657873091        0.8490366590
 H         -3.5624901422       -4.6998673122        0.4964682252
 H         -4.9171080804       -2.6692636155        0.0242299167
 H         -5.4036010768        1.8061396286       -0.6181164923
 H         -4.5025509501        4.1060329649       -0.9011857583
 H         -2.0555910378        4.4676080738       -0.7727114011
 H         -0.5562661580        2.5926697847       -0.3246712759
 H         -0.1443033681        1.5637149250        1.9384482175
 H          2.2988995446        1.9016966010        2.2475938464
  40
        -70.20607542
 C          5.3751849365        0.6030003506       -2.5214841704
 C          4.4196401643        0.4289844405       -1.3910781355
 N          3.1642149342        0.3905163885       -1.5937212126
 C          2.3306988814        0.2215005280       -0.5100987848
 C          0.9542720278        0.1623604007       -0.7109543868
 C          0.1064188008       -0.0227394223        0.3704216814
 N         -1.2830036323       -0.0864079460        0.1752544976
 C         -1.9972033171       -1.2372988828        0.5304781884
 C         -1.3744900082       -2.3744909077        1.0298025310
 C         -2.1112696666       -3.5006323717        1.3634493935
 C         -3.4803860239       -3.5157919942        1.1898940024
 C         -4.1128401754       -2.4025048924        0.6581555344
 C         -3.3822351006       -1.2768542403        0.3236042226
 O         -4.0753414526       -0.2312366206       -0.2303313784
 C         -3.3605974503        0.8819830335       -0.5923817132
 C         -4.0751989312        1.9276148020       -1.1483837779
 C         -3.4329920678        3.1029554632       -1.5061146074
 C         -2.0764130762        3.2293883967       -1.2853817997
 C         -1.3550171504        2.1827268296       -0.7317430811
 C         -1.9768917383        0.9858889511       -0.3992378381
 C          0.6327547238       -0.1463121884        1.6658823638
 C          1.9896603450       -0.0883810105        1.8727593170
 C          2.8533932208        0.0929727942        0.7899800328
 C          4.2959401666        0.1512880839        0.9751300934
 O          4.8937185590        0.0642406242        2.0130235489
 O          5.0255465729        0.3233968429       -0.1901218864
 H          5.2420445792       -0.2033647865       -3.2388756455
 H          5.1692216978        1.5402617800       -3.0330204091
 H          6.3934029184        0.6014132863       -2.1446213778
 H          0.5691571229        0.2490761191       -1.7144548364
 H         -0.3028230298       -2.3878720271        1.1510727076
 H         -1.6002754307       -4.3665012751        1.7551721395
 H         -4.0584605587       -4.3880154448        1.4506235362
 H         -5.1773307463       -2.3879296049        0.4874102127
 H         -5.1371017614        1.8018285559       -1.2865438147
 H         -3.9977934495        3.9121421883       -1.9413896891
 H         -1.5648134751        4.1452969247       -1.5377285045
 H         -0.2992080829        2.3051812184       -0.5489954900
 H         -0.0437014780       -0.2745936460        2.4972954570
 H          2.4136507425       -0.1732846002        2.8614556524
