  108
       -178.04223770
 C         -7.2541040577        1.7391938163       -1.3818409452
 C         -7.2490104533        0.3742949518       -1.1414791632
 C         -6.0757473611       -0.3444120530       -1.2583867299
 C         -4.8928371321        0.3022565233       -1.6116815365
 C         -3.6385229177       -0.4476625006       -1.6469455197
 N         -2.5096796204        0.2602437983       -1.5899993164
 C         -1.3481609081       -0.3653306733       -1.4820643549
 C         -0.1439579972        0.4236200379       -1.1853052908
 C          1.0651823488        0.1230792466       -1.8044421221
 C          2.2197833844        0.8014024514       -1.4792582112
 C          2.1921528204        1.7944541849       -0.5009815160
 N          3.3818532189        2.4332628300       -0.1387585977
 C          3.6284219518        3.7877307690       -0.3002563093
 C          2.7428093692        4.8248012983       -0.5429336844
 C          3.2605461961        6.0996498012       -0.6761807424
 C          4.6287486519        6.3396453544       -0.5826846572
 C          5.5180294253        5.3059712878       -0.3656753983
 C          5.0196496460        4.0174988799       -0.2255545816
 C          5.6378109628        2.7376063249       -0.0213289813
 C          6.9756690846        2.3515364101        0.0537377586
 C          7.2909506763        1.0219837934        0.2164216694
 C          6.2551099577        0.1020781079        0.3818930159
 C          4.8841018519        0.4567866107        0.3407712199
 C          4.1430149991       -0.7435146829        0.6259325804
 C          2.8070077836       -1.0321539609        0.8907435494
 C          2.4468799146       -2.3312446667        1.1854289806
 C          3.3944540255       -3.3489753952        1.2465841057
 C          4.7340277198       -3.0839331667        1.0461368009
 C          5.1003095315       -1.7809142276        0.7410664639
 N          6.3647176281       -1.2560848523        0.5899583063
 C          7.5607145325       -1.9850740928        0.6771290673
 C          8.5577060565       -1.5986016470        1.5674626159
 C          9.7325667998       -2.3236066591        1.6437830716
 C          9.9179067726       -3.4404415771        0.8459393726
 C          8.9225700421       -3.8312841287       -0.0342519145
 C          7.7486427549       -3.1067274118       -0.1248665719
 C          4.5916452147        1.7923071396        0.0516068696
 C          0.9873186293        2.1261185577        0.1081351706
 C         -0.1777404095        1.4486904703       -0.2247939101
 N         -1.3743256924        1.7920998901        0.4239795561
 C         -2.0338027558        2.9938293051        0.2370631768
 C         -1.5840378737        4.1681802137       -0.3450226133
 C         -2.4636789922        5.2319498740       -0.4156996861
 C         -3.7649077459        5.1339330988        0.0726944054
 C         -4.2276492075        3.9601973512        0.6330023008
 C         -3.3591002097        2.8804193676        0.7115049829
 C         -3.5054181765        1.5317824965        1.1694123290
 C         -4.5569792946        0.7466769739        1.6166110625
 O         -5.8518855936        1.1171395298        1.7836290686
 C         -6.5227135467       -0.0121386483        2.1423591928
 C         -7.8784964899       -0.1187217208        2.3895959644
 C         -8.3649389299       -1.3683297561        2.7316499874
 C         -7.5235895744       -2.4737796819        2.8241714140
 C         -6.1685534139       -2.3656707679        2.5797410551
 C         -5.6575114179       -1.1213997903        2.2348907900
 C         -4.3556551419       -0.6172606448        1.8936135466
 C         -3.0876445609       -1.1940252045        1.7908900975
 C         -2.0279428864       -0.4324636076        1.3517110973
 C         -2.2577155234        0.8960863355        0.9889247649
 C         -1.3177442484       -1.7608201445       -1.5346142227
 S          0.0297526178       -2.8550876653       -1.3952159277
 C         -1.0570763810       -4.2298180172       -1.4539695741
 C         -0.6850950479       -5.5632865370       -1.3973835705
 C         -1.6773981974       -6.5229110568       -1.4558959921
 C         -3.0191926695       -6.1639992861       -1.5676566853
 C         -3.3907463039       -4.8372784957       -1.6245626161
 C         -2.4050958921       -3.8566429863       -1.5694883607
 C         -2.5589315798       -2.4279832201       -1.6084896791
 N         -3.7074291672       -1.7735715465       -1.6438103774
 C         -4.9048868316        1.6727612432       -1.8593388495
 C         -6.0831190820        2.3842079019       -1.7464656260
 H         -8.1715362152        2.3008978015       -1.2815870548
 H         -8.1596432322       -0.1280343510       -0.8490890985
 H         -6.0501733355       -1.4040071495       -1.0567017322
 H          1.0939113064       -0.6392779551       -2.5678016081
 H          3.1517771250        0.5596956402       -1.9654921543
 H          1.6823020597        4.6494667319       -0.6332339608
 H          2.5892244424        6.9253068830       -0.8601045174
 H          4.9958230877        7.3495766100       -0.6893814273
 H          6.5799227197        5.4908580222       -0.3061211061
 H          7.7545676992        3.0927845519       -0.0345933877
 H          8.3184649313        0.6934375746        0.2251273165
 H          2.0613031264       -0.2552287274        0.9031551947
 H          1.4122718690       -2.5619786438        1.3908045462
 H          3.0805878966       -4.3545060025        1.4846584438
 H          5.4774763857       -3.8600934014        1.1488507289
 H          8.3997152940       -0.7405206718        2.2035472565
 H         10.5038974024       -2.0192921859        2.3356601320
 H         10.8351011267       -4.0059825068        0.9112990763
 H          9.0637472484       -4.7007257800       -0.6591896270
 H          6.9765925595       -3.3960471070       -0.8223993457
 H          0.9596064161        2.8792556194        0.8812956336
 H         -0.5852231889        4.2479502446       -0.7463538590
 H         -2.1360674973        6.1582943012       -0.8643725690
 H         -4.4199376219        5.9895275120       -0.0000132833
 H         -5.2395315706        3.8665447320        0.9955517028
 H         -8.5236980345        0.7417164245        2.3123103403
 H         -9.4199374372       -1.4892144961        2.9276874144
 H         -7.9427756099       -3.4330366751        3.0903785112
 H         -5.5186340747       -3.2247340059        2.6496822551
 H         -2.9485455460       -2.2348705087        2.0407254370
 H         -1.0395905778       -0.8592403349        1.2599747224
 H          0.3549360074       -5.8366557809       -1.3091110809
 H         -1.4071644152       -7.5674407116       -1.4135150060
 H         -3.7725519274       -6.9359808947       -1.6102292434
 H         -4.4225298932       -4.5354826998       -1.7112786502
 H         -3.9837835688        2.1639954932       -2.1311230856
 H         -6.0862363725        3.4481996638       -1.9327451853
