103
 energy: -170.941855554768 gnorm: 0.000060431532 xtb: 6.7.1 (edcfbbe)
N           -2.15040061068026       -3.31133755340644       -2.31830190652760
C           -1.81718378362617       -2.46552756084322       -1.60312235246353
C           -1.42304291293812       -1.46485869148471       -0.72717106115926
C           -2.33438409762568       -0.42549149421765       -0.34991341852533
N           -3.66441281053250       -0.50305329526379       -0.78275639762500
C           -4.56609037976875       -1.49053866794484       -0.44210151402295
C           -4.35484650702072       -2.68557595715621        0.23086524453986
C           -5.45176244808965       -3.48627009253028        0.48391183314430
C           -6.73219786719154       -3.10631039727987        0.09153465967300
C           -6.95155958815350       -1.90724637868663       -0.56278678804667
C           -5.86520274785805       -1.09134425572997       -0.83354832683644
C           -5.72714343867260        0.19807217142394       -1.45667691540955
C           -6.62114566974736        1.08811717625132       -2.02918950669965
C           -6.13033812741820        2.26412294427195       -2.56973478246348
C           -4.76605222321577        2.53686199922932       -2.57873463951845
C           -3.85579571437376        1.66142008906864       -2.01695704367168
C           -4.35028360138709        0.51216254620216       -1.41814879162898
C           -1.90623830734416        0.65886011372309        0.38892631280096
N           -2.81759023961201        1.64442270657286        0.78860928347086
C           -2.76907556240234        2.97759217932920        0.43547020495133
C           -1.76957994774698        3.68189138777209       -0.22065932212628
C           -1.99342786830119        5.01767483946455       -0.49274415383811
C           -3.18636662621137        5.63991438400095       -0.13583387747232
C           -4.19442319075680        4.93799777675180        0.50062366360340
C           -3.98911818762949        3.59888632220231        0.79006519319721
C           -4.80316869335085        2.58308515112847        1.40282378269199
C           -6.07871601289664        2.57190396474564        1.94322792942315
C           -6.55867101765729        1.39119619362136        2.48329116317801
C           -5.76961475010094        0.24598952240812        2.52367622054169
C           -4.49277367936245        0.23554743873781        1.99437986927120
C           -4.03271532098979        1.39898659268256        1.39551612635921
C           -0.53765053571615        0.77590730498365        0.79686235853983
C           -0.13959798994082        1.78134228125337        1.66488981861671
N            0.20322821159932        2.63129817253137        2.37092696445832
C            0.37015739043935       -0.26677489443331        0.42552013474924
N            1.70040315070456       -0.20566222104577        0.86644617726572
C            2.36220691970214       -1.24781758601684        1.48631709138237
C            1.83924398050810       -2.37528701222923        2.10117246551344
C            2.73025422625391       -3.28389168902430        2.64072399907803
C            4.10447269241081       -3.06729954075873        2.59055266823122
C            4.62860329465203       -1.91657247695493        2.02989430023534
C            3.75149759783438       -0.99318397705745        1.48212782780314
C            3.91898618515352        0.28222167987773        0.84874592615003
C            5.01317199225068        1.05842301800147        0.50475117697740
S            6.69087873190771        0.68309220152634        0.78335710122638
C            7.17549729857835        2.18184289471612        0.01586188025232
C            8.47674518337221        2.62222667684516       -0.14938607498076
C            8.68617893075460        3.83583955977456       -0.77769759623934
C            7.61194969066929        4.59494917781346       -1.23241263335400
C            6.31541476986774        4.15398214127889       -1.06740465950829
C            6.07719603572945        2.93415054645033       -0.43738873845217
C            4.82548061140334        2.28429673167648       -0.16102036968620
C            3.53374081850190        2.71546508661293       -0.48318570845282
C            2.43367841664124        1.95246736722592       -0.16716073313988
C            2.62789731946129        0.74261407849134        0.49907668562104
C           -0.05517576062984       -1.34651559464261       -0.32266936609090
N            0.86481792119981       -2.32086736016366       -0.73242020091045
C            2.08379670158424       -2.04820290311500       -1.32150509078569
C            2.52140860732563       -0.87761710742831       -1.92316798664886
C            3.81141365591114       -0.85283420255689       -2.42057409284450
C            4.63510188530663       -1.97111915704991       -2.34560929814290
C            4.17647422880624       -3.16246219372077       -1.80959281768432
C            2.88783911784843       -3.20933007858382       -1.30333519885019
C            2.08880954867595       -4.24330802571581       -0.70106836141528
C            2.32481262282017       -5.57464425808184       -0.39985848801693
C            1.32358934648453       -6.30056501285723        0.22013702939558
C            0.10643789477534       -5.70986304728670        0.54810965297756
C           -0.14839393070378       -4.38214783100930        0.26423761224441
C            0.84551578852604       -3.65342054220270       -0.37325889920906
H           -3.36828888347581       -2.98720083415442        0.54589691167271
H           -5.31245499536367       -4.42518601480491        0.99817035347183
H           -7.56519657421933       -3.75846298177250        0.30689323732447
H           -7.94660660611596       -1.60852292917260       -0.85494379596616
H           -7.67668502079003        0.86504987128245       -2.05429511310600
H           -6.81268390019852        2.97489711271632       -3.01073637456547
H           -4.40812554497829        3.44760241752359       -3.03447473075283
H           -2.79606968305788        1.86222023595402       -2.05684881172138
H           -0.84410218746174        3.20868713719751       -0.50896498809771
H           -1.22753521660165        5.58973764596886       -0.99438582474306
H           -3.32508280412489        6.68573313886856       -0.36518208338241
H           -5.12384539408440        5.41871189469796        0.76474593149563
H           -6.68157155418421        3.46695304454828        1.94427079726938
H           -7.55425486327002        1.36005439390119        2.89934381467181
H           -6.15814513140188       -0.65257829016613        2.97845437580282
H           -3.87306618899164       -0.64575855593203        2.05878299606527
H            0.77368415593883       -2.53428841694508        2.16752559607642
H            2.34982870294728       -4.17835206516974        3.11004807548724
H            4.76909197495045       -3.80443949078242        3.01462144994184
H            5.69205508287244       -1.73385781164303        2.01791236426187
H            9.30348877642118        2.02797826111096        0.20744354352466
H            9.69376869282246        4.19766750633246       -0.91541366178767
H            7.79799528534264        5.54049886425292       -1.71915666027908
H            5.48517170361608        4.74691707300102       -1.41963770133564
H            3.40577346716442        3.65726556490584       -0.99341413368568
H            1.44286277792497        2.28731700007322       -0.42795090796269
H            1.87419973653860       -0.01831186107905       -2.01337419454465
H            4.18323531387181        0.05312214614966       -2.87537826003456
H            5.64136329283753       -1.91121426301464       -2.73160891117052
H            4.80698842085096       -4.03780000101403       -1.78622326517372
H            3.27217907033105       -6.03083237008507       -0.64277892028847
H            1.48615846006839       -7.34098898501220        0.45813964007421
H           -0.65434344503174       -6.30066786761010        1.03549736546992
H           -1.09375815787986       -3.93441273614553        0.52674633421595
