103
 energy: -170.941854333818 gnorm: 0.000069848183 xtb: 6.7.1 (edcfbbe)
N           -2.18426452341219       -3.30683570134298       -2.30673293410363
C           -1.84180482395404       -2.46194161803423       -1.59485905429309
C           -1.43695922203485       -1.46203190147483       -0.72293206266372
C           -2.33798008651012       -0.41288599385283       -0.34809129274304
N           -3.66941441536300       -0.47885407704256       -0.77867909023326
C           -4.58098075579137       -1.45511743729174       -0.43203657438924
C           -4.38098653794766       -2.65018386564872        0.24430081763150
C           -5.48596888120961       -3.43777526076547        0.50331875336292
C           -6.76327098213323       -3.04493250733815        0.11342070282066
C           -6.97124100164328       -1.84583717324628       -0.54454322268443
C           -5.87671135048310       -1.04300870170755       -0.82134932209191
C           -5.72620392155652        0.24252422286454       -1.44958002482228
C           -6.61189089230132        1.14028481397794       -2.02296736481256
C           -6.10961366522300        2.30876771546590       -2.56926474233919
C           -4.74243636843813        2.56640404699078       -2.58294964331070
C           -3.84038029360833        1.68306925375616       -2.02029575036583
C           -4.34587372285042        0.54152841424395       -1.41592952981003
C           -1.89866439496632        0.66986574958378        0.38650173138475
N           -2.80035842392512        1.66489480635329        0.78475744348336
C           -2.74125468859024        2.99618902020115        0.42620584343758
C           -1.73710674179544        3.68927854764960       -0.23471271658385
C           -1.95028715887376        5.02570200138621       -0.51213376429995
C           -3.13731098181795        5.65939960699206       -0.15566309729221
C           -4.14986804033261        4.96876437930420        0.48597086811935
C           -3.95521395509530        3.62924718003217        0.78085655074744
C           -4.77643266870043        2.62293930730070        1.39969890157170
C           -6.05060298361800        2.62490421285734        1.94346544480082
C           -6.53925054589905        1.45056849412104        2.48959523809041
C           -5.76004168080415        0.29873041435387        2.53242447857874
C           -4.48475092273033        0.27514187783141        1.99980330030932
C           -4.01617834328019        1.43224982929719        1.39530898891086
C           -0.52831576983223        0.77588870960986        0.79132555869714
C           -0.11954134241547        1.78060130261897        1.65522518285617
N            0.23197053609372        2.62992218651489        2.35775810437877
C            0.36937302285473       -0.27626042851914        0.42183833094440
N            1.70105346763815       -0.22379624691705        0.85929470372109
C            2.35720182265617       -1.26664733986640        1.48373983820946
C            1.82848299618703       -2.38914907149489        2.10279790014219
C            2.71480585284641       -3.29983443363916        2.64651180420703
C            4.09007632200300       -3.08988105469740        2.59665680299801
C            4.62003108668016       -1.94378218477117        2.03200399254228
C            3.74773553101060       -1.01850660648773        1.47978166655319
C            3.92187170036801        0.25375630956504        0.84183050718260
C            5.01975858592570        1.02494113944366        0.49817531210786
S            6.69540081252635        0.64559808810063        0.78371615048000
C            7.18708634193436        2.14123256299060        0.01450382469945
C            8.49006031264787        2.57820939716262       -0.14606485017567
C            8.70505203076219        3.78993335367377       -0.77618375895629
C            7.63462838879366        4.55045649365762       -1.23744205495441
C            6.33636534071266        4.11286513743768       -1.07711377783347
C            6.09258867288616        2.89511044782487       -0.44522561004954
C            4.83806878405124        2.24943885573756       -0.17185639846017
C            3.54885347446039        2.68374684654355       -0.49969651704993
C            2.44524236236038        1.92600304317728       -0.18348814215688
C            2.63334118605454        0.71839775990960        0.48854867266938
C           -0.06730953115874       -1.35517117324836       -0.32089050592313
N            0.84236904631283       -2.34054437262750       -0.72713087053560
C            2.06408681880151       -2.08350586626586       -1.31756343547725
C            2.51434020617694       -0.92024235069937       -1.92411619605264
C            3.80447904283043       -0.91153137974996       -2.42166258610818
C            4.61594390040256       -2.03843922037584       -2.34234345974933
C            4.14442427585014       -3.22252982744092       -1.80150940899428
C            2.85546390783878       -3.25324488538545       -1.29485129890372
C            2.04542987092799       -4.27606825645245       -0.68825464777220
C            2.26695802305904       -5.60874988799466       -0.38199090334312
C            1.25806581380405       -6.32128585982375        0.24110423963916
C            0.04768268176892       -5.71595099766731        0.56740932611342
C           -0.19264311125089       -4.38659243927436        0.27857247565087
C            0.80877852048583       -3.67136594779982       -0.36242798457729
H           -3.39686894504776       -2.96171096295544        0.55730259954251
H           -5.35556714013611       -4.37646064713519        1.02032574946642
H           -7.60283143567794       -3.68700020646380        0.33357333439790
H           -7.96377434369292       -1.53706990055450       -0.83481971783019
H           -7.66989455178139        0.92879793388146       -2.04440043696438
H           -6.78526836365626        3.02537094980953       -3.01114056965054
H           -4.37574344875442        3.47145462054436       -3.04303496852046
H           -2.77860848089405        1.87202649984139       -2.06363431504590
H           -0.81617092546866        3.20708985913489       -0.52264151891553
H           -1.18060411579587        5.58915614895795       -1.01770099482358
H           -3.26779001510310        6.70530557600539       -0.38939090717196
H           -5.07465179019530        5.45843852782724        0.74989438368184
H           -6.64573569055867        3.52510550460903        1.94245803596430
H           -7.53392217995946        1.42971428894155        2.90846372472443
H           -6.15511040248692       -0.59462964414404        2.99180591614219
H           -3.87250271734097       -0.61123119366084        2.06604711250696
H            0.76216466182894       -2.54286663441114        2.16927064653299
H            2.32978554089754       -4.19060466237299        3.11910746831996
H            4.75089499470104       -3.82839943209395        3.02425940657953
H            5.68432318257378       -1.76597884355409        2.02041209190683
H            9.31388655386453        1.98293703294255        0.21577275676358
H            9.71406417061040        4.14919653650485       -0.91015622297422
H            7.82499777803307        5.49450475996143       -1.72542983853033
H            5.50902382677535        4.70692848767596       -1.43423769712149
H            3.42566044064956        3.62392006933431       -1.01407312701438
H            1.45636527271321        2.26324787635510       -0.44852334756408
H            1.87658193748476       -0.05427882951288       -2.01781154845709
H            4.18609549117063       -0.01152816605327       -2.88015576653067
H            5.62273123834149       -1.99107361042108       -2.72871098393671
H            4.76532389316173       -4.10462065637765       -1.77470083346480
H            3.20917535629907       -6.07622973822837       -0.62346644784046
H            1.40926599086806       -7.36253392299741        0.48295781888385
H           -0.71931397959200       -6.29642406168369        1.05746199346802
H           -1.13279455795842       -3.92744448902762        0.54008429343146
