103
 energy: -171.012256500249 gnorm: 0.000035950739 xtb: 6.7.1 (edcfbbe)
N           -2.16288025930804       -3.25716395093786       -2.35257017490378
C           -1.83462559107734       -2.45074362009897       -1.60803845131803
C           -1.41726867506527       -1.42486676622932       -0.72622689632597
C           -2.33292463059257       -0.42314578653283       -0.36661039335157
N           -3.65746547010830       -0.50372736050484       -0.79007280179709
C           -4.56334930721505       -1.49530761225574       -0.43565477113244
C           -4.34627514232573       -2.69644142759008        0.21777004712332
C           -5.44328682722563       -3.49344733883928        0.48649846940211
C           -6.72867337070119       -3.10150389599995        0.12603714343298
C           -6.95199224328242       -1.89443133684105       -0.50665275512183
C           -5.86464649949467       -1.08064885706962       -0.78990689541917
C           -5.73685517690697        0.21667687509915       -1.39610481671531
C           -6.64502012218656        1.11496464412990       -1.93722321256270
C           -6.16786457787068        2.29609296474254       -2.47194248707194
C           -4.80383769917413        2.56813978460796       -2.50953949892105
C           -3.88107053644251        1.68474395739028       -1.98186205154279
C           -4.36276307387972        0.53152932569198       -1.38526306756107
C           -1.88887020324909        0.66729699958089        0.40263585641831
N           -2.77095121340206        1.67261651384570        0.79189317123828
C           -2.68854332445032        3.00958154156614        0.42459245639253
C           -1.66297333253905        3.68870380333559       -0.21091158040903
C           -1.85510161591887        5.02693037839344       -0.49906888383458
C           -3.04347732981924        5.67387430543010       -0.17515462371561
C           -4.07727222411042        4.99478772506526        0.43907603813940
C           -3.90428437960481        3.65182318678153        0.74129716955673
C           -4.75610151788597        2.65848179351140        1.33670157363482
C           -6.04681669095484        2.68327206964728        1.84459145566993
C           -6.56957285548011        1.52113729933955        2.37825079074935
C           -5.80997682928106        0.35740579426687        2.44755817260675
C           -4.51997207777450        0.31190973970980        1.95347669867593
C           -4.01867411593040        1.45713833290150        1.35764120074987
C           -0.54214125353909        0.72260438567354        0.79533335930777
C           -0.12289936580481        1.75102318064525        1.67340613589574
N            0.20963219256381        2.56083295270872        2.41231093805051
C            0.37084230936258       -0.28130450267215        0.44013627636458
N            1.69413222045523       -0.21455325141198        0.87673802736351
C            2.37459020948908       -1.27115934711300        1.46400997150377
C            1.86574881409670       -2.40500494263272        2.07462349891901
C            2.76904501688550       -3.31482318078480        2.59109252904508
C            4.14107439717930       -3.08971641000987        2.52504630098077
C            4.64963830942632       -1.93100980897605        1.97164302026082
C            3.75911647348975       -1.00675011374050        1.44397004509400
C            3.91453734865942        0.27642940000013        0.82398689469770
C            5.00671580509404        1.05932391283372        0.47880461232927
S            6.68695932596782        0.68265621999328        0.74261017722322
C            7.16474295195485        2.19000391875301       -0.01112981700770
C            8.46521075061182        2.63371000803519       -0.17983949847378
C            8.66940077965906        3.85380486166617       -0.79515866904387
C            7.59135145238983        4.61641540420537       -1.23419195881098
C            6.29636633511847        4.17180613435111       -1.06573009029808
C            6.06385261263263        2.94558627262242       -0.44854665962881
C            4.81324162860034        2.28916902488562       -0.17029765720502
C            3.52028653532052        2.72001037965922       -0.47869369076512
C            2.42248100070453        1.95290312198930       -0.15674736484292
C            2.62418068422808        0.74221104381036        0.49758895908126
C           -0.06960977616833       -1.36671245617632       -0.33840857538075
N            0.82107943372617       -2.36003308454025       -0.74012427465820
C            2.07227723580645       -2.11541609935536       -1.28842351396406
C            2.54877432914571       -0.96222243720524       -1.88916259232451
C            3.85039229352689       -0.97143527499441       -2.35487126456657
C            4.64570879608689       -2.10832396784581       -2.25238180024111
C            4.14681403811388       -3.28190452105343       -1.72046009993093
C            2.84433443098892       -3.29375768439019       -1.24301534156656
C            2.00955375743619       -4.30657824174811       -0.65595140707017
C            2.21522478815536       -5.64202464708972       -0.34188131896064
C            1.18994795905256       -6.34679611488603        0.25761584284255
C           -0.02262516773217       -5.73259097748192        0.55407448446352
C           -0.24744608755483       -4.40194079244901        0.25408666593828
C            0.77068010911365       -3.69702115184497       -0.36450494997181
H           -3.35752178885870       -3.00977901701325        0.51786549173140
H           -5.29746718651625       -4.43787979539510        0.98887220496861
H           -7.56072551083471       -3.75113693603271        0.35204836715624
H           -7.95001934530560       -1.58274388716049       -0.77360202769334
H           -7.70028089558511        0.88960865138684       -1.94132884392838
H           -6.85919555177992        3.01346238151811       -2.88753180835262
H           -4.45533365654835        3.48477347520968       -2.96082899371338
H           -2.82284306929507        1.89031360908032       -2.04340363764141
H           -0.73988758432106        3.19904002086912       -0.48310698940654
H           -1.06639971158377        5.57875777636379       -0.98801681518247
H           -3.15642458007428        6.72028362601616       -0.41535143886210
H           -5.00495048730207        5.49183072926665        0.67739602511412
H           -6.62472396420188        3.59431557205602        1.82421499038979
H           -7.57619112926603        1.51651426917073        2.76807368584605
H           -6.23195134901581       -0.52858734915020        2.89729054509226
H           -3.92767116584395       -0.58677802706468        2.03965933817432
H            0.80226372820769       -2.57524941044839        2.15335721647895
H            2.39910585362852       -4.21669520347560        3.05473234772699
H            4.81501649218614       -3.82780467212592        2.93246128219094
H            5.71116705532696       -1.73906970371284        1.94905074873910
H            9.29449947036403        2.03585027021556        0.16508786005048
H            9.67564463371851        4.21871401159333       -0.93525951344136
H            7.77290941647747        5.56779706064833       -1.71149106355631
H            5.46330368832391        4.76794565047114       -1.40627135831622
H            3.38483040737479        3.66425164054495       -0.98266576651718
H            1.43127217132710        2.29053505796398       -0.41682479570293
H            1.92838317121021       -0.08497536773605       -1.99868054911928
H            4.25384021720239       -0.07754949545825       -2.80660050896266
H            5.66179751670964       -2.07391831321052       -2.61495425678691
H            4.75307033726006       -4.17338268194678       -1.67693246791075
H            3.16097997185276       -6.11348941175608       -0.56020747218039
H            1.32828396710181       -7.38809448767605        0.50659480761973
H           -0.80502844679717       -6.30426010757829        1.03015075012325
H           -1.19042106653660       -3.93860599325183        0.50241928924372
