  103
       -171.01217610
 N         -2.1557222896       -3.2566886119       -2.3491989529
 C         -1.8296206199       -2.4504400492       -1.6035043828
 C         -1.4142615445       -1.4244778973       -0.7208081034
 C         -2.3309939610       -0.4229995953       -0.3632295844
 N         -3.6552392406       -0.5063998662       -0.7868911032
 C         -4.5578097796       -1.5020724371       -0.4353686489
 C         -4.3376596288       -2.7031001884        0.2171605682
 C         -5.4318257402       -3.5059294537        0.4803980361
 C         -6.7177075419       -3.1195949872        0.1159003528
 C         -6.9444794416       -1.9120451479       -0.5147850722
 C         -5.8599999372       -1.0925843557       -0.7924930149
 C         -5.7361961872        0.2060821085       -1.3966734940
 C         -6.6472141930        1.1014987989       -1.9377261252
 C         -6.1739861829        2.2852052858       -2.4701620765
 C         -4.8109084139        2.5622223470       -2.5060931683
 C         -3.8853581413        1.6817129882       -1.9784631693
 C         -4.3633861405        0.5263278951       -1.3830992274
 C         -1.8878452092        0.6687940912        0.4045690343
 N         -2.7696941081        1.6756862467        0.7902489395
 C         -2.6830267819        3.0122496321        0.4223328598
 C         -1.6562850912        3.6875259248       -0.2153653044
 C         -1.8450387225        5.0257188678       -0.5059005376
 C         -3.0313827141        5.6764097041       -0.1824321848
 C         -4.0662150408        5.0013567134        0.4344937565
 C         -3.8963761558        3.6586419223        0.7394562225
 C         -4.7507283320        2.6685504862        1.3365187472
 C         -6.0402373932        2.6992333798        1.8472461902
 C         -6.5671900582        1.5393517556        2.3815831489
 C         -5.8128712773        0.3719143731        2.4478906169
 C         -4.5238250129        0.3208532020        1.9518505942
 C         -4.0178053247        1.4643762147        1.3566193724
 C         -0.5413494880        0.7249831052        0.7984875490
 C         -0.1239756433        1.7545328867        1.6761074374
 N          0.2066628783        2.5653292670        2.4147357841
 C          0.3727106701       -0.2789309369        0.4456268451
 N          1.6960078217       -0.2106444415        0.8818047529
 C          2.3788262422       -1.2668207517        1.4673000025
 C          1.8726823550       -2.4023578000        2.0769659860
 C          2.7781336047       -3.3111431201        2.5915790746
 C          4.1496526065       -3.0833157618        2.5250225417
 C          4.6555702781       -1.9230118645        1.9724823420
 C          3.7629028119       -1.0000331521        1.4463132539
 C          3.9157110969        0.2840739828        0.8275462506
 C          5.0065051926        1.0685559113        0.4815838668
 S          6.6876250462        0.6932069294        0.7418105789
 C          7.1625794937        2.2017826036       -0.0114047632
 C          8.4623316162        2.6466589463       -0.1825937483
 C          8.6641815899        3.8678534219       -0.7965826033
 C          7.5845190319        4.6304384227       -1.2317704724
 C          6.2902498970        4.1844526782       -1.0611899405
 C          6.0601148073        2.9570201060       -0.4454846773
 C          4.8106767750        2.2989452556       -0.1658680629
 C          3.5167916317        2.7282861878       -0.4722147270
 C          2.4203722696        1.9592083237       -0.1500121348
 C          2.6242662096        0.7482356733        0.5031052783
 C         -0.0670320228       -1.3656077828       -0.3315269077
 N          0.8226050833       -2.3608933568       -0.7301743046
 C          2.0730438205       -2.1229995572       -1.2827121027
 C          2.5563587008       -0.9709981395       -1.8803735433
 C          3.8557874340       -0.9886519856       -2.3518028773
 C          4.6421404023       -2.1326333794       -2.2589972040
 C          4.1361528463       -3.3044187993       -1.7300495780
 C          2.8361192309       -3.3075407915       -1.2457634826
 C          1.9964331546       -4.3165828437       -0.6592975164
 C          2.1929389610       -5.6550492493       -0.3523273225
 C          1.1650112555       -6.3544641853        0.2490434399
 C         -0.0408009718       -5.7318174324        0.5550704476
 C         -0.2564198081       -4.3980834432        0.2620865393
 C          0.7636595463       -3.6987215667       -0.3595570513
 H         -3.3487583012       -3.0126530136        0.5205042284
 H         -5.2830182832       -4.4506480387        0.9813662351
 H         -7.5474870093       -3.7738432181        0.3369759639
 H         -7.9430264444       -1.6046652189       -0.7847862474
 H         -7.7015107040        0.8718169438       -1.9434157204
 H         -6.8674110822        3.0005956457       -2.8855674776
 H         -4.4653299378        3.4805338530       -2.9562381601
 H         -2.8278719428        1.8912554751       -2.0391633223
 H         -0.7351746919        3.1948721321       -0.4882874199
 H         -1.0555929262        5.5743522831       -0.9971648574
 H         -3.1423123524        6.7223730366       -0.4257792637
 H         -4.9927138723        5.5010836020        0.6719642529
 H         -6.6137978878        3.6132192411        1.8284052453
 H         -7.5730830734        1.5392270191        2.7736648770
 H         -6.2384304402       -0.5127081242        2.8969315904
 H         -3.9361089764       -0.5809809191        2.0362064702
 H          0.8096481559       -2.5748944596        2.1565836357
 H          2.4101315940       -4.2142372498        3.0543838419
 H          4.8253976378       -3.8203843087        2.9312931037
 H          5.7167164460       -1.7289907758        1.9495214992
 H          9.2929018489        2.0490170168        0.1595934139
 H          9.6698437065        4.2337583338       -0.9383563405
 H          7.7641914873        5.5828036992       -1.7078614965
 H          5.4559623034        4.7803773472       -1.3990891578
 H          3.3792916390        3.6728294932       -0.9750705257
 H          1.4286300111        2.2959592673       -0.4090372022
 H          1.9427759578       -0.0882662750       -1.9836766629
 H          4.2645502567       -0.0959705420       -2.8011091374
 H          5.6564825375       -2.1050146569       -2.6270146501
 H          4.7347882876       -4.2013738353       -1.6940984084
 H          3.1336968448       -6.1332603331       -0.5774956224
 H          1.2962649109       -7.3980433580        0.4922404244
 H         -0.8252835041       -6.2990673416        1.0330276491
 H         -1.1940489337       -3.9283074829        0.5184284888
