103
 energy: -171.012229267692 gnorm: 0.000126631227 xtb: 6.7.1 (edcfbbe)
N           -2.02255405234976       -3.06883087987391       -2.53229830304099
C           -1.68230721264283       -2.31781379005008       -1.73697113913692
C           -1.25099427086700       -1.35749600846884       -0.79039052720199
C           -2.14966886104874       -0.36003832439469       -0.37893076550706
N           -3.47271064984899       -0.39324291273056       -0.81346363172135
C           -4.39514836603014       -1.38816682085621       -0.51607440462108
C           -4.19924805049162       -2.62423484646627        0.07602657233589
C           -5.30915131961492       -3.41797065944104        0.29714726702270
C           -6.58643813173178       -2.98925236701508       -0.05010561695388
C           -6.78856907361855       -1.74795811181543       -0.62068974311751
C           -5.68798923829379       -0.93642994772180       -0.85534409007184
C           -5.53731301905129        0.38881792482741       -1.39188236190443
C           -6.42902799175145        1.32776072251540       -1.88953197219481
C           -5.93154783741143        2.52840467339932       -2.35813026255111
C           -4.56352875073507        2.78199947929346       -2.37356808461115
C           -3.65678951641825        1.85838612731212       -1.88868781538870
C           -4.15878446841761        0.68234147312444       -1.35692481797213
C           -1.69040849985160        0.67490866309567        0.45459496371218
N           -2.55114910046285        1.68201828331163        0.88533910529197
C           -2.42719231007611        3.03237803045610        0.58471196294187
C           -1.37525347677806        3.71197020939604       -0.00558609289740
C           -1.52684707287521        5.06726533975677       -0.23145970228825
C           -2.70113336458333        5.73104777568801        0.10940967228566
C           -3.76089444532204        5.05274036190827        0.67862027632511
C           -3.62874420233252        3.69255758895365        0.91807306975082
C           -4.51516892483004        2.69582259590403        1.45427569149501
C           -5.81129351466138        2.73249579029198        1.94736628015874
C           -6.37323755614226        1.56095308038619        2.41667723589602
C           -5.64746189211644        0.37396526744262        2.43698109688536
C           -4.35273987190764        0.31590299389141        1.95673128106771
C           -3.81167015503982        1.47438198914901        1.42473114356308
C           -0.34851088327705        0.67415656667027        0.86792296865711
C            0.07933606176554        1.63896828616690        1.81159751389170
N            0.41594784472174        2.39676024785880        2.60201875331378
C            0.54600720420967       -0.32824925597760        0.46524168371696
N            1.86241626151724       -0.32429631046255        0.92645253934780
C            2.50498700777733       -1.43600443942403        1.45177513920562
C            1.95649466649112       -2.59519746585790        1.97411976918226
C            2.82666795353373       -3.56130354422523        2.44307891405821
C            4.20486533049066       -3.36807961077733        2.41699756323018
C            4.75260398566998       -2.18789890094246        1.95366904498414
C            3.89568345869415       -1.20696252148262        1.47489540716860
C            4.09481663178533        0.11150578214364        0.94848844232167
C            5.21254426841891        0.88860941188805        0.68080273444810
S            6.87730126133677        0.45246688303841        0.95121432279565
C            7.40669240581899        1.99750957898527        0.31788614243221
C            8.72047060706175        2.42028886657262        0.20925396082859
C            8.96643703533496        3.67612092291359       -0.31165587095238
C            7.91643096122223        4.49443098212112       -0.71707982567144
C            6.60813539039678        4.07055776328526       -0.60883368175309
C            6.33370145839172        2.80921019594211       -0.08706557067454
C            5.06231341259515        2.16576111890985        0.11729461596656
C            3.78696526999068        2.64960099271073       -0.18558381945869
C            2.66452999910823        1.88993500089514        0.05983362820183
C            2.82310349867193        0.63189609373523        0.63148020226957
C            0.09321537474773       -1.35161039882051       -0.38741484910897
N            0.97106998126437       -2.33118819268582       -0.84667296936316
C            2.23227611956773       -2.06901131114142       -1.36338384310478
C            2.73388951069332       -0.88399866513878       -1.87520173895423
C            4.04030362130968       -0.88160875874836       -2.32737712954461
C            4.81620994109616       -2.03601234190457       -2.29853322487232
C            4.29267362711733       -3.23608232971706       -1.85707952258168
C            2.98487677460983       -3.26021145841873       -1.39481730062581
C            2.12719812431324       -4.29836615051041       -0.89095607473182
C            2.30803139788858       -5.65631999302485       -0.67294945047480
C            1.26474238631046       -6.38558663852786       -0.13727357292343
C            0.05877992676033       -5.77424763110328        0.19036679854515
C           -0.14143918951340       -4.42174073402583       -0.01419122850789
C            0.89487815321503       -3.69073581947242       -0.56905151362230
H           -3.21689575755314       -2.96628783026259        0.36585953111273
H           -5.18013148827760       -4.38891197717034        0.75128495603485
H           -7.42905147230953       -3.63753715615843        0.13736507285995
H           -7.78040839073856       -1.40843844255424       -0.87651925918114
H           -7.48738086228203        1.11846510795776       -1.91129553679642
H           -6.60987430755382        3.27688287393798       -2.73882658939727
H           -4.19908793873279        3.71612011714904       -2.77349481938340
H           -2.59539849582558        2.05160130508534       -1.93310591837943
H           -0.46285354094661        3.20979003299567       -0.29088072419160
H           -0.71724276118751        5.61943769900034       -0.68456720219657
H           -2.78236476985977        6.79038239572626       -0.08203107773513
H           -4.67765708714524        5.56363651804291        0.92956601623948
H           -6.36319190062541        3.65958737055323        1.96504947823327
H           -7.38461738168112        1.56593494507023        2.79396470207612
H           -6.10004481844780       -0.52067049175683        2.83710198658154
H           -3.78724902819176       -0.60266997054560        2.00474981105755
H            0.88779364510860       -2.74260884614972        2.02244404420815
H            2.42551500487797       -4.48268557479398        2.83718345285079
H            4.85219133118069       -4.14955100475476        2.78472561671617
H            5.81876643412478       -2.02239556741814        1.96337290280714
H            9.52780098704358        1.77921353881776        0.52764805886348
H            9.98367189274429        4.02559190637025       -0.40341408197273
H            8.13053438174938        5.47303964043910       -1.12005956991229
H            5.79681688218420        4.70974397511503       -0.92274911761826
H            3.68482332126677        3.63003934615148       -0.62400230089660
H            1.68762665769416        2.27044529317221       -0.19482740132136
H            2.12880355337249        0.00903845504521       -1.92820308187046
H            4.46292481268921        0.03539684637766       -2.70991758318168
H            5.83670266990845       -1.99276718220942       -2.64753850418659
H            4.88403556023954       -4.13843918880166       -1.87152075592772
H            3.24863382581392       -6.12631147444857       -0.91540370829677
H            1.38347922253807       -7.44444793344406        0.03633420768063
H           -0.73823324545033       -6.36587049482538        0.61503098883337
H           -1.08012157956232       -3.96250415435881        0.25676316106555
