  68
       -108.71548908
 C          4.9969805233        5.2089626441       -0.2169569947
 O          3.6346354631        5.1534901615       -0.5594199933
 C          2.9242597468        4.0373721512       -0.2106145990
 C          1.5701043377        4.0619676597       -0.5780070788
 C          0.7217636405        3.0147556343       -0.2930846846
 C          1.2423094983        1.9201935491        0.3820084698
 C          2.6040198856        1.8759404196        0.7418503016
 C          3.4510983902        2.9387950906        0.4484036296
 C          2.8186942477        0.6077051656        1.3793718367
 C          3.9295381510       -0.0109361211        1.9364083626
 C          3.7782262588       -1.2629121995        2.4981931935
 C          2.5316267243       -1.8824825408        2.5448395495
 C          1.4110285495       -1.2842756421        2.0034278826
 C          1.5710381759       -0.0556494561        1.3806512572
 N          0.6263116634        0.7396157362        0.7644958532
 C         -0.6466591472        0.3288330836        0.3522345649
 C         -1.7519589730        1.1099170632        0.6531720551
 C         -3.0286038633        0.7279912555        0.2572654202
 C         -3.2193501809       -0.4583380519       -0.4481905324
 C         -2.1101288335       -1.2290556504       -0.7566494064
 C         -0.8260791274       -0.8565787325       -0.3826569621
 N          0.2667407242       -1.6627110750       -0.7334180207
 C          1.4394222222       -1.2149857325       -1.3100031691
 C          1.7033815489       -0.0037638696       -1.9308135248
 C          2.9767792750        0.2009840156       -2.4245062094
 C          3.9577194273       -0.7833459444       -2.3315388162
 C          3.6807022884       -2.0133799009       -1.7686421830
 C          2.4095877944       -2.2400002847       -1.2597224109
 C          1.7779118164       -3.3675915317       -0.6339783259
 C          2.2107729386       -4.6438947805       -0.3021823010
 C          1.3298315680       -5.4995233159        0.3293106847
 C          0.0343377291       -5.0930575860        0.6396743148
 C         -0.4190190285       -3.8269310274        0.3214256520
 C          0.4572500228       -2.9690472014       -0.3261806783
 C         -4.5926438889       -0.8856626643       -0.8846789911
 C         -5.6591133405        0.0603305161       -0.4039287089
 C         -6.9987114097       -0.1997878843       -0.6586175288
 C         -7.9905257049        0.6643660219       -0.2335541443
 C         -7.6491980285        1.8138563176        0.4605893894
 C         -6.3232279401        2.0895609221        0.7272912964
 C         -5.3290348980        1.2157089385        0.2976117229
 O         -4.0426891617        1.5662879439        0.6083292865
 H          5.5669238131        4.4097810377       -0.7025323551
 H          5.3523047387        6.1734905351       -0.5760966011
 H          5.1417184025        5.1507140740        0.8669446338
 H          1.2097444046        4.9349497391       -1.0985156472
 H         -0.3129602577        3.0494824143       -0.5975112385
 H          4.4892332113        2.8830573540        0.7317329278
 H          4.8908401607        0.4803111520        1.9296698804
 H          4.6329542662       -1.7659002616        2.9252355102
 H          2.4372035294       -2.8500973983        3.0149178899
 H          0.4443125151       -1.7591278991        2.0681628875
 H         -1.6331829847        2.0182138625        1.2217812354
 H         -2.2416865965       -2.1365869602       -1.3273563074
 H          0.9428857373        0.7554023204       -2.0289044309
 H          3.2135707665        1.1441615811       -2.8940742388
 H          4.9441857814       -0.5833454412       -2.7231119609
 H          4.4336713839       -2.7857229452       -1.7239674417
 H          3.2185918206       -4.9556159151       -0.5309682093
 H          1.6467502726       -6.4972395349        0.5943197804
 H         -0.6293570729       -5.7810953252        1.1426620233
 H         -1.4196731793       -3.5146044619        0.5813380980
 H         -4.8011531130       -1.8949743941       -0.5112732944
 H         -4.6246414423       -0.9450369169       -1.9796093341
 H         -7.2589648179       -1.0972482116       -1.2015526373
 H         -9.0255781496        0.4425786489       -0.4432277311
 H         -8.4159357606        2.4952756127        0.7957013710
 H         -6.0295314060        2.9758680673        1.2672785861
