  45
  -74.0012720993000       0.321833576030548      !
 O         -3.8985012401        0.8840751935        2.2126717581
 S         -3.5434114226        1.1419586266        0.8358547522
 O         -3.8832743453        2.4310813409        0.2789338231
 C         -4.2765331958       -0.1350138960       -0.1922723676
 C         -4.4254502412       -1.4132559865        0.3195731716
 C         -4.9494606333       -2.4076364431       -0.4861536837
 C         -5.3111568872       -2.1214694421       -1.7953948268
 C         -5.1510747360       -0.8389184929       -2.3003967607
 C         -4.6259376828        0.1590202597       -1.4992226012
 C         -1.8165879068        0.8407109632        0.6145021354
 C         -1.1458493356       -0.0470167875        1.4769115073
 C          0.1760964366       -0.3187629897        1.2876435686
 C          0.8934849966        0.2956906189        0.2192815833
 N          2.2332972380        0.0464974966        0.0473811481
 C          2.8405275541       -1.1906355145        0.1751243554
 C          2.2663259087       -2.4359330332        0.3757128422
 C          3.1077185312       -3.5404133753        0.4485078110
 C          4.4896590243       -3.3972804320        0.3086095694
 C          5.0707163765       -2.1630028466        0.0633580290
 C          4.2484835911       -1.0435279328       -0.0273631590
 C          4.4787125748        0.3343071320       -0.3102386375
 C          5.6177722525        1.0841592429       -0.5885081396
 C          5.4868561126        2.4526804677       -0.7662442066
 C          4.2488712448        3.0880413054       -0.6567569759
 C          3.0944814482        2.3598254928       -0.3895419394
 C          3.2071505467        0.9860032808       -0.2482873815
 C          0.1952425394        1.1750856051       -0.6583247362
 C         -1.1340413644        1.4153031687       -0.4738677329
 H         -4.1542316189       -1.6002340456        1.3465376761
 H         -5.0820423217       -3.4048405508       -0.0938296036
 H         -5.7235659220       -2.8985579622       -2.4212971826
 H         -5.4398901851       -0.6173193147       -3.3169452298
 H         -4.5036602363        1.1697856410       -1.8552211926
 H         -1.6943725571       -0.4533936380        2.3110586670
 H          0.7220440902       -0.9255178774        1.9938441845
 H          1.1962585589       -2.5556906580        0.4480882537
 H          2.6849658265       -4.5198473911        0.6038539699
 H          5.1160040799       -4.2742889726        0.3748193812
 H          6.1380776999       -2.0688141441       -0.0622368918
 H          6.5831994060        0.6071728237       -0.6544938685
 H          6.3639258920        3.0464484183       -0.9762070784
 H          4.1859835033        4.1583433651       -0.7694362702
 H          2.1467254122        2.8616976691       -0.2716669343
 H          0.7182938098        1.5822949660       -1.5099743371
 H         -1.6866063296        2.0645999397       -1.1337467049
  45
  -74.0010163065000       0.245514484592319      !
 O         -4.0027442986       -1.6295695263       -1.7370748491
 S         -3.6385614268       -1.2564265168       -0.3895966863
 O         -4.0870950745       -2.1029258512        0.6915702539
 C         -4.1839596902        0.4262161203       -0.0914331250
 C         -4.3532371645        1.2820186463       -1.1676305088
 C         -4.6817352333        2.6050392382       -0.9353403740
 C         -4.8268932219        3.0653112922        0.3656325688
 C         -4.6504065787        2.2003599234        1.4372397294
 C         -4.3210241277        0.8766674062        1.2110126264
 C         -1.8892394658       -1.0367689353       -0.2792767260
 C         -1.2294890929       -1.2417097064        0.9462646707
 C          0.1066538735       -0.9961365306        1.0594097879
 C          0.8330607092       -0.4676350804       -0.0465571551
 N          2.1764592597       -0.2014637224        0.0629339288
 C          3.1184252136       -1.0195794562        0.6631274374
 C          2.9660930881       -2.2850091020        1.2064393249
 C          4.0936431356       -2.9163518070        1.7201192174
 C          5.3427099420       -2.2952927758        1.6774554795
 C          5.5132193041       -1.0455293654        1.1018570124
 C          4.4024576457       -0.3981053638        0.5692410735
 C          4.2128731910        0.8318997113       -0.1263816634
 C          5.0624388819        1.8618103094       -0.5197501865
 C          4.5179146504        2.9692399313       -1.1509302953
 C          3.1456958136        3.0771828171       -1.3847084983
 C          2.2775086896        2.0566424794       -1.0132442542
 C          2.8160981183        0.9273926589       -0.4174063136
 C          0.1416314227       -0.2194166642       -1.2676821108
 C         -1.1863395936       -0.5050368895       -1.3775550099
 H         -4.2491202304        0.8880605534       -2.1661965950
 H         -4.8279762690        3.2776540610       -1.7672649663
 H         -5.0807671108        4.0990833479        0.5450644887
 H         -4.7727258351        2.5598395862        2.4479700971
 H         -4.1883681289        0.1777046960        2.0216475319
 H         -1.8083279821       -1.6165340057        1.7749279299
 H          0.6149404305       -1.1191587504        2.0034384268
 H          2.0086609923       -2.7824690313        1.2117873611
 H          4.0007601918       -3.9018797528        2.1473749689
 H          6.1979093948       -2.8101554810        2.0891500686
 H          6.4878999260       -0.5852928625        1.0573332890
 H          6.1222595620        1.7997162931       -0.3281906094
 H          5.1658990071        3.7776332090       -1.4551193619
 H          2.7511604296        3.9662867802       -1.8494916327
 H          1.2137703626        2.1583449918       -1.1641188990
 H          0.7085996992        0.1139647975       -2.1234428116
 H         -1.7179341197       -0.3744024471       -2.3058013701
  45
  -74.0009824958000       0.236885674231401      !
 O         -4.0064852739        0.9707831764        2.2156783515
 S         -3.5945724926        1.2144302288        0.8526748467
 O         -3.9642997744        2.4727055958        0.2471693562
 C         -4.1718511246       -0.1301553494       -0.1839207449
 C         -4.3223346189        0.0776240963       -1.5453579247
 C         -4.6593178418       -0.9883528295       -2.3587622617
 C         -4.8298443069       -2.2526746562       -1.8115215361
 C         -4.6731764909       -2.4506774772       -0.4464185174
 C         -4.3364256062       -1.3886578329        0.3719964366
 C         -1.8540636887        0.9642881798        0.6984325835
 C         -1.2005425769        0.0542979962        1.5519372847
 C          0.1124313525       -0.2505966935        1.3523673586
 C          0.8369421796        0.3484004941        0.2804143176
 N          2.1642194425        0.0563184873        0.0820991739
 C          2.7370891932       -1.2002951319        0.1730965396
 C          2.1341424523       -2.4298530763        0.3871450498
 C          2.9435070607       -3.5596577092        0.4129870480
 C          4.3216647411       -3.4575888817        0.2141491547
 C          4.9290864550       -2.2388195460       -0.0442825672
 C          4.1388862598       -1.0943035789       -0.0872778124
 C          4.4011689087        0.2800651655       -0.3630442708
 C          5.5489773187        0.9984384308       -0.6832060325
 C          5.4530819985        2.3729597670       -0.8356479489
 C          4.2424834215        3.0446175705       -0.6584277140
 C          3.0793090613        2.3483183982       -0.3506628255
 C          3.1551442284        0.9691143167       -0.2382194962
 C          0.1582442503        1.2559856364       -0.5840667789
 C         -1.1622479167        1.5299679033       -0.3893558226
 H         -4.1944423063        1.0740925906       -1.9375771763
 H         -4.7904356368       -0.8357349701       -3.4195806127
 H         -5.0895273000       -3.0841681183       -2.4491298634
 H         -4.8151784516       -3.4334567409       -0.0223161174
 H         -4.2197874894       -1.5063427953        1.4376343276
 H         -1.7559830642       -0.3470235645        2.3839639681
 H          0.6465781882       -0.8774717136        2.0499734149
 H          1.0651307660       -2.5182581389        0.5054193304
 H          2.4979845204       -4.5273780760        0.5781269137
 H          4.9229877342       -4.3538539900        0.2446564082
 H          5.9922767014       -2.1758043238       -0.2161938955
 H          6.4948802599        0.4932845247       -0.8015489382
 H          6.3374212079        2.9425227865       -1.0791650992
 H          4.2084350428        4.1181770572       -0.7509057524
 H          2.1536471108        2.8759803451       -0.1808650008
 H          0.6859386849        1.6531199289       -1.4375510704
 H         -1.7040496236        2.1931713091       -1.0441500661
  45
  -74.0002920875000       0.114090402208032      !
 O         -4.1382643101        0.9766132642        2.2118784889
 S         -3.6596651406        1.2436020565        0.8758691860
 O         -4.0901864150        2.4625524588        0.2326252303
 C         -4.0183537184       -0.1582224339       -0.1814920154
 C         -4.0340351396        0.0158187671       -1.5568355975
 C         -4.1375064675       -1.0915491384       -2.3774627601
 C         -4.2092287810       -2.3630133101       -1.8237513777
 C         -4.1929402182       -2.5266357632       -0.4448531135
 C         -4.0890893422       -1.4235840719        0.3812493456
 C         -1.9018790170        1.1069804193        0.8135596985
 C         -1.2471439340        0.1990868595        1.6706276259
 C          0.0591672701       -0.1228571580        1.4586914388
 C          0.7769391986        0.4557686249        0.3714521089
 N          2.0815637057        0.1041253115        0.1252537383
 C          2.5909283746       -1.1825067826        0.1701066539
 C          1.9338756029       -2.3812019673        0.3986233552
 C          2.6799427230       -3.5533132226        0.3581228395
 C          4.0474162824       -3.5221875007        0.0810356823
 C          4.7059831207       -2.3325297516       -0.1889813089
 C          3.9793126991       -1.1465801614       -0.1649736151
 C          4.3003317548        0.2177170394       -0.4341676337
 C          5.4651905528        0.8807786184       -0.8057847850
 C          5.4329380030        2.2605552832       -0.9356077330
 C          4.2698903948        2.9910336905       -0.6853425161
 C          3.0902574265        2.3513141650       -0.3254645816
 C          3.1008517424        0.9680778509       -0.2341388232
 C          0.1080677499        1.3846503314       -0.4783090567
 C         -1.2072442826        1.6730622676       -0.2737363108
 H         -3.9812776048        1.0161712004       -1.9563499472
 H         -4.1584565754       -0.9666961403       -3.4497971031
 H         -4.2802830062       -3.2268098849       -2.4673369336
 H         -4.2602971306       -3.5156128117       -0.0165304061
 H         -4.0824636997       -1.5153220338        1.4557595613
 H         -1.8009990773       -0.1948415433        2.5073406436
 H          0.5935314734       -0.7556239861        2.1511040892
 H          0.8699344154       -2.4133643442        0.5768262946
 H          2.1914213837       -4.4985972409        0.5317899496
 H          4.5989299352       -4.4501697023        0.0595830128
 H          5.7594345668       -2.3239521927       -0.4215113582
 H          6.3758889933        0.3297372811       -0.9816957124
 H          6.3313132647        2.7876799033       -1.2197707823
 H          4.2874682141        4.0662411296       -0.7627357038
 H          2.2020633769        2.9216911087       -0.1015570711
 H          0.6346821015        1.7790026749       -1.3337261481
 H         -1.7477180820        2.3404362885       -0.9253966116
  45
  -73.9999166391000       7.668403789501711E-002 !
 O         -4.1918654619        1.0313848616        2.1595730682
 S         -3.6782140551        1.2629873849        0.8300239397
 O         -4.1170450437        2.4488002438        0.1327384445
 C         -3.9693290784       -0.1863515645       -0.1839830767
 C         -3.8695288657       -0.0765113033       -1.5626562456
 C         -3.9129090224       -1.2198997482       -2.3375525895
 C         -4.0402804838       -2.4644785091       -1.7339929836
 C         -4.1407843331       -2.5638844365       -0.3529850191
 C         -4.0971343543       -1.4239529468        0.4279355789
 C         -1.9165429378        1.1656639559        0.8178286045
 C         -1.2758318506        0.2357379101        1.6624292145
 C          0.0328227258       -0.0822610623        1.4629616090
 C          0.7689025084        0.5205487836        0.4003169619
 N          2.0628241055        0.1409249942        0.1426379476
 C          2.5307789194       -1.1630175482        0.1540543669
 C          1.8372313097       -2.3454024664        0.3583121062
 C          2.5462635955       -3.5390222878        0.2917746552
 C          3.9129615291       -3.5452303004        0.0102242964
 C          4.6065662461       -2.3714689951       -0.2406912457
 C          3.9170277698       -1.1644527918       -0.1899840433
 C          4.2796386173        0.1940995026       -0.4339365356
 C          5.4613123513        0.8249066181       -0.8079267176
 C          5.4740163498        2.2069838655       -0.9105209991
 C          4.3393701540        2.9705068852       -0.6284479271
 C          3.1433692199        2.3636645680       -0.2671874564
 C          3.1070331992        0.9788724730       -0.2062045094
 C          0.1196938165        1.4862724793       -0.4238284130
 C         -1.1983208305        1.7714816059       -0.2323950860
 H         -3.7738029821        0.9039420420       -2.0017357635
 H         -3.8436739488       -1.1451062644       -3.4125018712
 H         -4.0641138657       -3.3567460329       -2.3412699776
 H         -4.2503930167       -3.5317256994        0.1133378901
 H         -4.1770624490       -1.4662639766        1.5026133235
 H         -1.8437289119       -0.1816184948        2.4780596705
 H          0.5557667899       -0.7329855506        2.1474230251
 H          0.7728620976       -2.3492903394        0.5366829053
 H          2.0284269993       -4.4716595800        0.4478576978
 H          4.4351863838       -4.4892648544       -0.0311299419
 H          5.6587561917       -2.3905235804       -0.4781871371
 H          6.3503134835        0.2468342761       -1.0068555417
 H          6.3856299116        2.7095455570       -1.1969091509
 H          4.3930869361        4.0459512910       -0.6829317442
 H          2.2783902449        2.9594851485       -0.0198547837
 H          0.6617131947        1.9102869976       -1.2549166031
 H         -1.7255730966        2.4634924696       -0.8691789212
  45
  -73.9973349860000       4.991825042681951E-003 !
 O         -4.3053594048        0.7198966020        2.2238443047
 S         -3.7556318201        1.1403137857        0.9572811516
 O         -4.3440451433        2.2896646570        0.3124694395
 C         -3.6850170947       -0.2409356252       -0.1824456698
 C         -3.5946408870        0.0141136449       -1.5437122982
 C         -3.2811039553       -1.0173718215       -2.4076353947
 C         -3.0402308905       -2.2920089903       -1.9112812833
 C         -3.1376007134       -2.5397496110       -0.5477453865
 C         -3.4521160448       -1.5135547387        0.3217201451
 C         -2.0006778151        1.2934210442        1.0560803738
 C         -1.3003975472        0.4085951736        1.9087692854
 C         -0.0020452248        0.0963502710        1.6553855019
 C          0.6716616378        0.6623852070        0.5312492456
 N          1.9183631639        0.2151564122        0.1747464277
 C          2.3087403935       -1.1147315949        0.1774096527
 C          1.5624885245       -2.2486164920        0.4599362092
 C          2.1888930838       -3.4836065443        0.3571942780
 C          3.5236688826       -3.5800219992       -0.0373357945
 C          4.2632188222       -2.4553548909       -0.3684662265
 C          3.6560849730       -1.2080839599       -0.2810649517
 C          4.0753544089        0.1229930163       -0.5900904567
 C          5.2551034297        0.6714058189       -1.0777205791
 C          5.3372772213        2.0465943389       -1.2273999923
 C          4.2744318028        2.8821507845       -0.8789626632
 C          3.0827607874        2.3585308265       -0.3982035416
 C          2.9741008179        0.9801029878       -0.2871929818
 C         -0.0124982552        1.6301909311       -0.2649709721
 C         -1.3209961447        1.9089603081       -0.0203031164
 H         -3.7818755643        1.0155115754       -1.8974098282
 H         -3.2155643355       -0.8294566847       -3.4689622943
 H         -2.7775632450       -3.0922475012       -2.5865187304
 H         -2.9597723150       -3.5341843799       -0.1657500060
 H         -3.5318188700       -1.6738903075        1.3851794775
 H         -1.8263547259        0.0098218329        2.7612956185
 H          0.5630961919       -0.5279812041        2.3313994694
 H          0.5177992628       -2.1815548455        0.7228290430
 H          1.6297186510       -4.3800842673        0.5724810925
 H          3.9809939011       -4.5555440343       -0.1061648501
 H          5.2869658327       -2.5442321639       -0.6972045374
 H          6.0907101637        0.0365879889       -1.3284610397
 H          6.2481135626        2.4863214823       -1.6047786734
 H          4.3828129462        3.9505634406       -0.9762175238
 H          2.2769243873        3.0110612178       -0.0998915068
 H          0.4896234943        2.0491129256       -1.1229676828
 H         -1.8806439099        2.5863170688       -0.6449120210
