  63
  -105.270085529900       0.246744541348053      !
 N          1.8460720124        3.6337238270       -0.9023483079
 C          1.4179454123        2.6457091273       -0.5089172313
 C          0.8432090615        1.4228992094       -0.0893623104
 C         -0.5388108855        1.2823391508       -0.1591481636
 C         -1.1374481896        0.0650983627        0.1389740738
 C         -2.5937544230       -0.0701927517        0.0708800197
 N         -3.3008807010        1.0136254093       -0.2276822004
 C         -4.6213746201        0.8500227677       -0.2782594288
 C         -5.4449098671        2.0119610066       -0.6071767627
 C         -6.8307078579        1.8873224935       -0.6900540957
 C         -7.6059180769        2.9866888105       -1.0028414800
 C         -7.0081105042        4.2159508775       -1.2348629182
 C         -5.6302272275        4.3453441658       -1.1534373348
 C         -4.8489207242        3.2500850791       -0.8412070148
 N         -5.2322397355       -0.3081263662       -0.0470910651
 C         -4.4466904762       -1.3401011020        0.2445746686
 C         -5.0776385045       -2.6332161008        0.5042723126
 C         -6.4665167462       -2.7493255220        0.4895837504
 C         -7.0606782104       -3.9718119627        0.7344961115
 C         -6.2776018783       -5.0860266837        0.9944355861
 C         -4.8956935309       -4.9760207141        1.0097478876
 C         -4.2949750675       -3.7563143834        0.7666881092
 N         -3.1186517103       -1.2658736016        0.3137885917
 C         -0.3395902722       -1.0249843097        0.4898478941
 C          1.0293470948       -0.8913421506        0.5720975728
 C          1.6405649928        0.3330403810        0.3071102836
 N          3.0226182413        0.4560025828        0.4094610241
 C          3.7420397557        1.4837185750        1.0155081412
 C          3.2810605756        2.5536771878        1.7646941977
 C          4.2181980586        3.4189992010        2.2949540412
 C          5.5828766137        3.2170131989        2.1022942200
 C          6.0515258912        2.1286234278        1.3967757580
 C          5.1299129455        1.2411908843        0.8527519871
 C          5.2393724752        0.0133007818        0.1281322689
 C          6.2044881039       -0.8753210203       -0.4332251277
 C          7.5960598611       -0.8151463069       -0.4388272869
 C          8.3190097510       -1.8137199686       -1.0570216856
 C          7.6786062425       -2.8822467528       -1.6771793765
 C          6.2987888688       -2.9663575289       -1.6885852201
 C          5.5732543068       -1.9657180710       -1.0694122522
 S          3.8135527267       -1.8991637145       -0.9793378284
 C          3.9457899439       -0.4234527904       -0.0892982657
 H         -1.1539184369        2.1160003935       -0.4603354708
 H         -7.2777236735        0.9228965206       -0.5073932631
 H         -8.6796719371        2.8886742509       -1.0671599178
 H         -7.6167999943        5.0741166829       -1.4795814593
 H         -5.1665481875        5.3038006591       -1.3346449549
 H         -3.7757345658        3.3335303618       -0.7735142192
 H         -7.0593811725       -1.8716412631        0.2860297384
 H         -8.1373687314       -4.0600228190        0.7224903213
 H         -6.7447606868       -6.0412153339        1.1847962189
 H         -4.2877777360       -5.8457573780        1.2119298268
 H         -3.2214085509       -3.6529098314        0.7732088320
 H         -0.8161928116       -1.9674922007        0.7060068049
 H          1.6433851125       -1.7321209841        0.8571560908
 H          2.2278913612        2.7095440097        1.9416684177
 H          3.8842734416        4.2660844929        2.8742309657
 H          6.2837502921        3.9190257217        2.5285189590
 H          7.1101811004        1.9607965630        1.2748302344
 H          8.0946566452        0.0128895047        0.0403038647
 H          9.3978624705       -1.7679618658       -1.0604199305
 H          8.2630361322       -3.6534785987       -2.1553985952
 H          5.7938064405       -3.7903422737       -2.1688920622
  63
  -105.270081701300       0.245746901621852      !
 N          1.8447735063        3.7263241164       -0.5358842377
 C          1.4165016802        2.7052064650       -0.2389700609
 C          0.8430638365        1.4478387216        0.0634730222
 C         -0.5387107061        1.3109355756       -0.0249808572
 C         -1.1352805759        0.0714840334        0.1654079947
 C         -2.5903231800       -0.0659975873        0.0763702526
 N         -3.2922535300        0.9968965048       -0.2986916220
 C         -4.6114687023        0.8268287266       -0.3651930751
 C         -5.4287199625        1.9621142756       -0.7889930814
 C         -4.8215919809        3.1415574651       -1.2167314817
 C         -5.5969174874        4.2116333522       -1.6183490788
 C         -6.9797010402        4.1159780384       -1.5948978253
 C         -7.5884296715        2.9450616001       -1.1701731468
 C         -6.8192750407        1.8702175530       -0.7694898062
 N         -5.2266517103       -0.3136064809       -0.0669699416
 C         -4.4457614910       -1.3245555769        0.3008699530
 C         -5.0786222925       -2.5972656759        0.6428791426
 C         -6.4631236418       -2.7354368754        0.5633459408
 C         -7.0574472351       -3.9379497436        0.8923103370
 C         -6.2791072730       -5.0097467255        1.3014010955
 C         -4.9014204346       -4.8778687028        1.3808970313
 C         -4.3005901798       -3.6781646338        1.0540292059
 N         -3.1186292383       -1.2463819733        0.3788114447
 C         -0.3370465913       -1.0423288149        0.4300420771
 C          1.0314109168       -0.9144593096        0.5240164382
 C          1.6414498856        0.3282789528        0.3622484177
 N          3.0251319016        0.4362522954        0.4629795793
 C          3.7618792272        1.3965868965        1.1519399718
 C          3.3205604715        2.3983018119        2.0005532581
 C          4.2728339789        3.2014368120        2.5974232410
 C          5.6330766617        3.0032850996        2.3722898217
 C          6.0822135367        1.9801317477        1.5639744661
 C          5.1453467458        1.1564090209        0.9506612482
 C          5.2338245016        0.0009196566        0.1128224890
 C          6.1816053524       -0.8377312706       -0.5468523533
 C          7.5734160806       -0.7899870434       -0.5691400634
 C          8.2762981472       -1.7286907665       -1.2949826230
 C          7.6156358426       -2.7247764401       -2.0073497672
 C          6.2351558833       -2.7953857034       -2.0039249002
 C          5.5298304226       -1.8546204851       -1.2770647446
 S          3.7726419630       -1.7818285212       -1.1542076804
 C          3.9332235289       -0.4009829213       -0.1275495994
 H         -1.1547184650        2.1667803283       -0.2535499135
 H         -3.7446204458        3.1982169184       -1.2311648876
 H         -5.1246834463        5.1237957372       -1.9515819222
 H         -7.5837026839        4.9547423125       -1.9085020486
 H         -8.6659638275        2.8736649506       -1.1519291001
 H         -7.2750385668        0.9519187793       -0.4346137093
 H         -7.0523245680       -1.8910594473        0.2419851454
 H         -8.1305773285       -4.0434975196        0.8310154566
 H         -6.7466115278       -5.9489619804        1.5585242563
 H         -4.2970695789       -5.7143685894        1.6996283977
 H         -3.2304063491       -3.5571035719        1.1116235948
 H         -0.8124393544       -2.0005171656        0.5644592300
 H          1.6463491652       -1.7756471876        0.7369979170
 H          2.2709397057        2.5487286972        2.2014415904
 H          3.9545231385        3.9957401578        3.2550150191
 H          6.3463468406        3.6555229442        2.8534763128
 H          7.1376108927        1.8134815475        1.4151791335
 H          8.0880639190       -0.0181700253       -0.0186164278
 H          9.3553402525       -1.6918997484       -1.3121274788
 H          8.1844638232       -3.4496053524       -2.5694272130
 H          5.7139420656       -3.5631201837       -2.5547310294
  63
  -105.269976699200       0.219903644427707      !
 N          1.8381717164        3.6116948181       -0.9159367920
 C          1.4166896832        2.6364060888       -0.4851657282
 C          0.8444539127        1.4297874259       -0.0180742394
 C         -0.5375109908        1.2870621136       -0.0840215238
 C         -1.1372703309        0.0796718244        0.2498623521
 C         -2.5912860239       -0.0628793212        0.1523326520
 N         -3.2968126189        1.0218544658       -0.1468525775
 C         -4.6126515587        0.8483620608       -0.2526998784
 C         -5.4317457379        2.0110026656       -0.5900375064
 C         -4.8443856206        3.2691269023       -0.7132794837
 C         -5.6191142465        4.3647499179       -1.0400379819
 C         -6.9817905303        4.2155893585       -1.2466100120
 C         -7.5711120964        2.9666792482       -1.1238661396
 C         -6.8025994472        1.8669978021       -0.7961291000
 N         -5.2205543278       -0.3208140596       -0.0762402557
 C         -4.4380155719       -1.3506497481        0.2307321690
 C         -5.0666612954       -2.6549741161        0.4334743132
 C         -4.2879330438       -3.7718760736        0.7313056305
 C         -4.8864456713       -5.0027998404        0.9160083605
 C         -6.2623952196       -5.1305894395        0.8052100220
 C         -7.0416473553       -4.0227090794        0.5095128778
 C         -6.4496677398       -2.7887192117        0.3240999752
 N         -3.1146145432       -1.2660417298        0.3573684911
 C         -0.3412543404       -0.9958124528        0.6465131339
 C          1.0275337514       -0.8587638226        0.7281106245
 C          1.6412289486        0.3527233438        0.4133267574
 N          3.0254954324        0.4694142248        0.4875527825
 C          3.7670001679        1.5280205777        1.0074615599
 C          3.3355506108        2.6311475158        1.7253988852
 C          4.2909891404        3.5276010630        2.1632863448
 C          5.6457167723        3.3238860041        1.9115791410
 C          6.0874382537        2.2027165527        1.2407076086
 C          5.1469997310        1.2835888197        0.7897000818
 C          5.2293483783        0.0217686156        0.1216990454
 C          6.1713011503       -0.8876076973       -0.4459111197
 C          7.5601558768       -0.8202954820       -0.5272004770
 C          8.2575683399       -1.8418820440       -1.1369425913
 C          7.5944359717       -2.9414073467       -1.6732698401
 C          6.2167456088       -3.0336397255       -1.6081204671
 C          5.5166544531       -2.0093652938       -0.9983751517
 S          3.7633641236       -1.9468349516       -0.8231511005
 C          3.9296358282       -0.4299063109       -0.0118465212
 H         -1.1515249833        2.1092631256       -0.4174400293
 H         -3.7827901539        3.3669468020       -0.5496408849
 H         -5.1620941189        5.3386851829       -1.1351959091
 H         -7.5849391624        5.0736693348       -1.5049541068
 H         -8.6329435780        2.8531286206       -1.2859871750
 H         -7.2430497131        0.8872414797       -0.6989721415
 H         -3.2187739908       -3.6543149873        0.8112635530
 H         -4.2815377016       -5.8674884307        1.1463872551
 H         -6.7279483376       -6.0947060969        0.9485463665
 H         -8.1134055135       -4.1251816264        0.4231437898
 H         -7.0396916276       -1.9158347472        0.0934657049
 H         -0.8179937059       -1.9305959032        0.8938905771
 H          1.6405291347       -1.6887296839        1.0453791700
 H          2.2911805654        2.7891150469        1.9473233092
 H          3.9796486705        4.4013768608        2.7147559899
 H          6.3613889480        4.0515768568        2.2638152903
 H          7.1400222575        2.0349133460        1.0742787872
 H          8.0766528049        0.0317789962       -0.1137049543
 H          9.3342078907       -1.7891352692       -1.2013062977
 H          8.1593198932       -3.7302633649       -2.1461854410
 H          5.6936503745       -3.8813335362       -2.0233789226
  63
  -105.269519992500       0.135626501678702      !
 N          1.8441210983        3.4640084643       -1.4672166584
 C          1.4178827925        2.5485657981       -0.9242153200
 C          0.8432692307        1.4024252718       -0.3262247578
 C         -0.5399880885        1.2585486657       -0.3711430384
 C         -1.1393930930        0.0919615656        0.0841451142
 C         -2.5959530248       -0.0493594803        0.0416591009
 N         -3.3173436447        1.0496000296       -0.1450578966
 C         -4.6384621632        0.8804281015       -0.1541283803
 C         -5.4806022656        2.0646815089       -0.3109196208
 C         -6.8648208699        1.9327517729       -0.4062795686
 C         -7.6576662838        3.0550134314       -0.5460034050
 C         -7.0790834097        4.3142093659       -0.5902859946
 C         -5.7027192901        4.4506670192       -0.4959877114
 C         -4.9036334360        3.3327387296       -0.3572629334
 N         -5.2336149159       -0.3014624281       -0.0248994850
 C         -4.4324501865       -1.3494495886        0.1392974202
 C         -5.0426805353       -2.6721076508        0.2627939711
 C         -6.4299193660       -2.8047327654        0.2843344971
 C         -7.0026223146       -4.0567795857        0.3941471823
 C         -6.1997246423       -5.1835453336        0.4821557202
 C         -4.8192842764       -5.0568872960        0.4608348297
 C         -4.2397078427       -3.8079374329        0.3521199460
 N         -3.1043659668       -1.2659812624        0.1979071970
 C         -0.3432717078       -0.9453323651        0.5715308787
 C          1.0247945527       -0.8000124033        0.6450593281
 C          1.6386736583        0.3776928157        0.2205877815
 N          3.0193340385        0.5133977760        0.3171255117
 C          3.7366324160        1.6247306770        0.7567507324
 C          3.2733627583        2.8038778019        1.3167911938
 C          4.2087190517        3.7425815522        1.7071586278
 C          5.5742823140        3.5088851755        1.5644695671
 C          6.0451477648        2.3167994108        1.0552834757
 C          5.1251947434        1.3543743929        0.6553217699
 C          5.2377840378        0.0219895303        0.1485005506
 C          6.2067180846       -0.9535078479       -0.2332356025
 C          7.5985460769       -0.9014812565       -0.2206393401
 C          8.3253350714       -1.9964248200       -0.6387331620
 C          7.6887044815       -3.1543944493       -1.0749210092
 C          6.3088317191       -3.2325713400       -1.1010734817
 C          5.5794613783       -2.1353352433       -0.6824343481
 S          3.8194127151       -2.0465839122       -0.6399572179
 C          3.9451100943       -0.4404829366       -0.0131554308
 H         -1.1531885836        2.0465318688       -0.7806653229
 H         -7.2968011500        0.9452115649       -0.3698926112
 H         -8.7302191215        2.9516663083       -0.6198939837
 H         -7.7016795775        5.1903224676       -0.6983793961
 H         -5.2543162383        5.4326085394       -0.5302173955
 H         -3.8312577139        3.4204863535       -0.2786021314
 H         -7.0382105659       -1.9168456477        0.2158933235
 H         -8.0778194191       -4.1583675975        0.4108227294
 H         -6.6503493813       -6.1616573223        0.5666746998
 H         -4.1959855266       -5.9364486853        0.5281774926
 H         -3.1676197791       -3.6904749287        0.3295787843
 H         -0.8205681231       -1.8525281879        0.9058646257
 H          1.6354851291       -1.5942988361        1.0464541515
 H          2.2196991098        2.9894897804        1.4577865168
 H          3.8720372694        4.6740681616        2.1355638745
 H          6.2738593015        4.2703641847        1.8750443103
 H          7.1042274989        2.1277753596        0.9752159307
 H          8.0944364889       -0.0048254049        0.1167552278
 H          9.4043902234       -1.9568436114       -0.6278533987
 H          8.2761605913       -4.0007729753       -1.3967469763
 H          5.8066522326       -4.1260553805       -1.4388730618
  63
  -105.269209861900       9.768286847499875E-002 !
 N          1.8431658083        3.3945571082       -1.6425117747
 C          1.4183172172        2.5018398748       -1.0614060600
 C          0.8429173330        1.3821750710       -0.4156489845
 C         -0.5406612868        1.2379477213       -0.4537268326
 C         -1.1398913316        0.0887011610        0.0431832830
 C         -2.5970109061       -0.0513760246        0.0130950522
 N         -3.3189977252        1.0525813589       -0.1378669961
 C         -4.6405293727        0.8863430769       -0.1191617674
 C         -5.4832147213        2.0764787757       -0.2162937351
 C         -6.8710174152        1.9517464983       -0.2489674648
 C         -7.6641993842        3.0796879062       -0.3261206572
 C         -7.0823469584        4.3373623828       -0.3708298187
 C         -5.7023872081        4.4666720974       -0.3394923119
 C         -4.9029232530        3.3430548275       -0.2628380389
 N         -5.2351779733       -0.2979262750       -0.0108316232
 C         -4.4331167830       -1.3514958591        0.1058630530
 C         -5.0428360941       -2.6771546172        0.1935422804
 C         -6.4288722612       -2.8084623893        0.2573685690
 C         -7.0012283068       -4.0633186346        0.3318992425
 C         -6.1990639078       -5.1940680408        0.3417352850
 C         -4.8197867571       -5.0686083157        0.2777222440
 C         -4.2404992074       -3.8168546470        0.2045061364
 N         -3.1041155748       -1.2708064977        0.1489553898
 C         -0.3441167141       -0.9314517805        0.5654995810
 C          1.0235647595       -0.7818250209        0.6382836574
 C          1.6376373773        0.3802278050        0.1729222256
 N          3.0172128560        0.5233558984        0.2734440358
 C          3.7277893209        1.6549471370        0.6711749286
 C          3.2568612361        2.8578282006        1.1714585476
 C          4.1865142803        3.8155589042        1.5277820400
 C          5.5539543888        3.5781151690        1.4110870697
 C          6.0320650244        2.3643479129        0.9635733675
 C          5.1178405584        1.3826875594        0.5988521563
 C          5.2382897158        0.0281147053        0.1569463079
 C          6.2134406061       -0.9636915761       -0.1615585221
 C          7.6048547139       -0.9103384623       -0.1269904242
 C          8.3384106113       -2.0243179590       -0.4773508297
 C          7.7090634856       -3.2027273125       -0.8670350773
 C          6.3298403972       -3.2827542534       -0.9138064235
 C          5.5936775565       -2.1666559009       -0.5624095031
 S          3.8331788533       -2.0776429959       -0.5521915285
 C          3.9482866032       -0.4433479939       -0.0002997237
 H         -1.1534769008        2.0113238866       -0.8908368789
 H         -7.3055123694        0.9652046736       -0.2130520937
 H         -8.7396103809        2.9819601363       -0.3505099891
 H         -7.7051771651        5.2178571749       -0.4302164194
 H         -5.2514264932        5.4474815138       -0.3741612862
 H         -3.8277165184        3.4249118347       -0.2327404265
 H         -7.0365698333       -1.9174423584        0.2482772916
 H         -8.0754887725       -4.1639784064        0.3815433105
 H         -6.6493720292       -6.1742157958        0.3994301955
 H         -4.1972180597       -5.9512328188        0.2837164216
 H         -3.1695109806       -3.6997693591        0.1494622197
 H         -0.8212524296       -1.8270048019        0.9302076050
 H          1.6334935948       -1.5604576574        1.0703771770
 H          2.2016034218        3.0480401820        1.2930229995
 H          3.8436570270        4.7647723221        1.9102103870
 H          6.2489424983        4.3548485176        1.6926247090
 H          7.0922604105        2.1732483842        0.9049994150
 H          8.0950751233        0.0018132323        0.1753933241
 H          9.4170389779       -1.9838440006       -0.4489018039
 H          8.3017824239       -4.0634946645       -1.1367840955
 H          5.8333365271       -4.1918815962       -1.2164834597
  63
  -105.268654875200       5.429554244868714E-002 !
 N          2.2117727882        2.5366638387       -1.9657791419
 C          1.6593761093        1.8009058443       -1.2822747824
 C          0.9510374681        0.9415598350       -0.4100908958
 C         -0.4321983998        0.8480278135       -0.5247851101
 C         -1.1527947616        0.0574933538        0.3600454259
 C         -2.6066425749       -0.0626916924        0.2204881860
 N         -3.2405313026        0.8657553557       -0.4844940547
 C         -4.5633011308        0.7268955398       -0.5657129932
 C         -5.3200430768        1.7576572346       -1.2728216424
 C         -6.6966886990        1.6220753654       -1.4441994270
 C         -7.4105485755        2.6031660040       -2.1039580841
 C         -6.7601549874        3.7244618243       -2.5959249716
 C         -5.3910126105        3.8637103908       -2.4284602392
 C         -4.6704456577        2.8862594001       -1.7703174836
 N         -5.2324836819       -0.2949042634       -0.0404351857
 C         -4.5117834125       -1.1933195744        0.6226559932
 C         -5.1992323250       -2.3566167865        1.1799535382
 C         -6.5862439613       -2.4606076938        1.0921416208
 C         -7.2295367285       -3.5697452137        1.6056543950
 C         -6.4977549193       -4.5813344294        2.2084185027
 C         -5.1178305835       -4.4822578756        2.2985337897
 C         -4.4679541091       -3.3756476075        1.7879545758
 N         -3.1954893821       -1.0985494450        0.8056627963
 C         -0.4873824538       -0.6252257030        1.3784449651
 C          0.8820636466       -0.5269583761        1.5059913556
 C          1.6202440419        0.2405945823        0.6084750235
 N          3.0100218576        0.2965433629        0.7131956780
 C          3.7468610709        0.5875186957        1.8552575616
 C          3.3001700129        0.9877416337        3.1038071107
 C          4.2506132344        1.2545606176        4.0705910634
 C          5.6123522380        1.1364348435        3.7990080147
 C          6.0644765489        0.7596657958        2.5514806783
 C          5.1304437440        0.4834687505        1.5586187927
 C          5.2153728554        0.0957801041        0.1857663664
 C          6.1591771421       -0.2734462077       -0.8186861314
 C          7.5502590609       -0.3284559214       -0.7785106135
 C          8.2487988512       -0.7358569591       -1.8957016411
 C          7.5837994258       -1.0925273468       -3.0648008684
 C          6.2039154402       -1.0472846537       -3.1323671639
 C          5.5021960977       -0.6409740082       -2.0126210357
 S          3.7461713880       -0.5332352400       -1.9043540719
 C          3.9134091025        0.0153532971       -0.2759237341
 H         -0.9510721167        1.3871522731       -1.3022681238
 H         -7.1850422148        0.7424823605       -1.0553767915
 H         -8.4772411832        2.4969923843       -2.2364713328
 H         -7.3212128669        4.4908365828       -3.1104405484
 H         -4.8867892563        4.7384123380       -2.8120025686
 H         -3.6053540469        2.9800233908       -1.6274591615
 H         -7.1385561360       -1.6640215689        0.6191898985
 H         -8.3044899360       -3.6495760064        1.5370416721
 H         -7.0032465162       -5.4487502698        2.6070398270
 H         -4.5498608277       -5.2727349444        2.7668286150
 H         -3.3945522390       -3.2837518440        1.8436508141
 H         -1.0632007003       -1.2336580407        2.0577945180
 H          1.4021755040       -1.0642385555        2.2847669110
 H          2.2465337613        1.0973374572        3.3133848494
 H          3.9316118848        1.5651861729        5.0540654078
 H          6.3243236483        1.3541221618        4.5811024653
 H          7.1206292285        0.6868225353        2.3443213694
 H          8.0681858144       -0.0520666449        0.1267251894
 H          9.3273976880       -0.7795461750       -1.8647217699
 H          8.1492734683       -1.4082600477       -3.9283094735
 H          5.6797775134       -1.3226320012       -4.0344864993
