  46
        -74.46067878
 C         -0.3590635833       -5.2051196798       -2.5186048229
 C         -0.7151617671       -4.4632748047       -1.2357949125
 C          0.4512237095       -4.4680887494       -0.2500097318
 C          0.1366332641       -3.7170877534        1.0523366865
 N         -0.0581009775       -2.3107938160        0.8207825603
 C          0.9538419157       -1.4179518590        0.6161682338
 C          2.3413880134       -1.5999947313        0.6514418508
 C          3.1482698456       -0.5194942232        0.4112210061
 C          2.6267777977        0.7732129741        0.1317586819
 C          3.4297976136        1.9031995234       -0.1161979072
 C          4.8197626368        1.9949649801       -0.1561769616
 C          5.4131283653        3.2410253817       -0.4176771729
 N          5.8964849829        4.2634269576       -0.6294923142
 C          5.7533030051        0.9698732156        0.0324170194
 N          6.5781815605        0.1772975578        0.1745586347
 C          1.2110756866        0.9427037691        0.1056900061
 C          0.4024633260       -0.1320852979        0.3436346262
 C         -1.0372408620       -0.3016251281        0.3914541426
 C         -2.0775103516        0.5644713023        0.2089615457
 C         -3.4135448916        0.0811981456        0.3241328830
 C         -4.5459675775        0.8939774150        0.1535490991
 C         -4.5992378503        2.2589684463       -0.1491806237
 C         -5.8523912411        2.8764613599       -0.2761712922
 N         -6.8849167069        3.3754290863       -0.3785794301
 C         -3.5273452194        3.1318021858       -0.3530084507
 N         -2.6896586663        3.9042419538       -0.5323492266
 C         -3.6066820032       -1.2976003211        0.6298116457
 C         -2.5677021343       -2.1682937174        0.8117545527
 C         -1.2596856023       -1.6779532702        0.6901718992
 H          0.4899783476       -4.7343598514       -3.0090983806
 H         -0.1015366325       -6.2395174775       -2.3034683314
 H         -1.2002789415       -5.1961031845       -3.2064472653
 H         -1.5848920309       -4.9373593957       -0.7740045573
 H         -0.9884361341       -3.4329736793       -1.4808454898
 H          0.7067555844       -5.4980521410        0.0068017178
 H          1.3256615489       -4.0136312463       -0.7226055121
 H          0.9640966288       -3.8408512141        1.7577876392
 H         -0.7674726796       -4.1253270261        1.5096216660
 H          2.7775106181       -2.5637305434        0.8648546788
 H          4.2168614346       -0.6522841720        0.4374201322
 H          2.9057538747        2.8331492346       -0.3020451768
 H          0.7925992912        1.9159702472       -0.1021479443
 H         -1.8923141618        1.5995686879       -0.0196396620
 H         -5.5111058373        0.4155305261        0.2673145994
 H         -4.6202349992       -1.6593206456        0.7196806866
 H         -2.7609178258       -3.2048055441        1.0419986516
