46
 energy: -74.507217157249 gnorm: 0.000065845007 xtb: 6.7.1 (edcfbbe)
C           -0.36890569286981       -5.29542058882973       -2.48312842099172
C           -0.72551613587831       -4.52255738383843       -1.21777614994917
C            0.45604827441497       -4.47275095506697       -0.25215884381024
C            0.13814833324035       -3.70637032583656        1.04245396656152
N           -0.05476580782177       -2.30399637343205        0.79726077119798
C            0.95676181206857       -1.41205906433516        0.60370599475255
C            2.34458640880457       -1.59566186316700        0.65107993292173
C            3.15503120697132       -0.51513018536243        0.41656888167112
C            2.63614407213880        0.77633653756377        0.13121042324665
C            3.44012599697941        1.90697242747996       -0.11646331370170
C            4.83089588636454        2.00699214582824       -0.13263493260873
C            5.42414466051326        3.24858667078205       -0.40832161781238
N            5.91208450270041        4.26738377203504       -0.63361445644301
C            5.77346857193651        1.00020816278182        0.09780171928814
N            6.61288101406694        0.22847434782407        0.27484191181685
C            1.21997704328771        0.94864106092644        0.09355117741504
C            0.40846555529411       -0.12432979885660        0.32692442867756
C           -1.03311440748788       -0.29454784559666        0.36547988823926
C           -2.07570364183666        0.56914375888718        0.18355349454797
C           -3.41016837425210        0.07978787358267        0.29155664571401
C           -4.54776966578862        0.89167769471537        0.13227463494962
C           -4.61165306599821        2.26305862352510       -0.13345659891389
C           -5.86718216309551        2.87569956957480       -0.25258855486303
N           -6.90135277658955        3.37461302302205       -0.35016553334716
C           -3.55374841086891        3.15977296401955       -0.30093641572020
N           -2.73475538473406        3.95975646476150       -0.45022185392116
C           -3.60237057521594       -1.30160121349735        0.58071141887142
C           -2.56120245363475       -2.17051619646878        0.76577215997787
C           -1.25363470435545       -1.67378473912300        0.65890501707698
H            0.46096604422355       -4.82073212082758       -3.00255453618926
H           -0.08262594229953       -6.31689810583114       -2.24182568493364
H           -1.21977882221289       -5.32927943246953       -3.15952375730384
H           -1.57478126083807       -5.00734899362704       -0.73182985607990
H           -1.02691647019508       -3.50928366658840       -1.49291529764007
H            0.74056394959867       -5.48930364630819        0.02319236256542
H            1.30971164321645       -4.00595691952682       -0.74680425492808
H            0.96808866803211       -3.82335324840329        1.74425592312544
H           -0.76591555208032       -4.11162846960643        1.49938883320796
H            2.77861788934889       -2.55889196895889        0.86673333969818
H            4.22374378578768       -0.64655703342006        0.45021128437725
H            2.91744344999450        2.83297227077166       -0.32316442260232
H            0.80729797863342        1.92309308517715       -0.11851029933770
H           -1.89658788438188        1.60694768741462       -0.03971508049676
H           -5.51054614908840        0.40542304377109        0.22880785862076
H           -4.61560921280293       -1.66524847407939        0.65851742733155
H           -2.75299577281338       -3.20842769349306        0.98492962556559
