46
 energy: -74.575946842211 gnorm: 0.000079229039 xtb: 6.7.1 (edcfbbe)
C           -4.95389695231133       -2.71427566170563       -0.14828806593918
C           -3.66905183979619       -3.23195053248609        0.49023532159796
C           -2.59657397147462       -2.15377612056514        0.64882777525526
C           -2.03394682485965       -1.68180675673562       -0.69723508017742
N           -0.96892684038651       -0.72793907491224       -0.51564389681566
C            0.35172852618433       -1.03594178249257       -0.33818742091056
C            0.98930574450999       -2.27475778156778       -0.33690255108429
C            2.34974459081571       -2.30799243040443       -0.14213138871558
C            3.10896850525474       -1.13372495817342        0.05457593616505
C            4.52551896077498       -1.13797981608745        0.25949272125415
C            5.39321463983005       -2.18840766834761        0.31776812535011
C            6.76872963569643       -1.94326239680311        0.53549560883958
N            7.88551323150636       -1.74604006357795        0.71331175589108
C            5.11075799071659       -3.56334595388162        0.19184722928740
N            4.96952873465331       -4.70053862366412        0.10161413781450
C            2.45925889796801        0.11063632001969        0.05403830593843
C            1.09524822280913        0.15782040356151       -0.13830244747555
C            0.13987177439887        1.23384752902933       -0.18726833175767
C            0.25435781855389        2.60146313341012       -0.05691346641323
C           -0.89888174066770        3.39222595637728       -0.14795831790706
C           -0.88699763097283        4.81762446458354       -0.02435279874064
C            0.16834104251647        5.66152420772353        0.16408991172478
C           -0.06284748147115        7.05279692407649        0.25980920349986
N           -0.25474548368047        8.18189832356427        0.33816362781325
C            1.53376970001502        5.33314467635710        0.27759762124712
N            2.66381461433714        5.14708141725575        0.37712596750530
C           -2.14817106816968        2.76630215015886       -0.36997026562591
C           -2.27652883945566        1.40507964090510       -0.50382893056715
C           -1.12448397753596        0.62605266946891       -0.41453353294433
H           -4.78999613414897       -2.40767458646580       -1.17825025149283
H           -5.71067873087622       -3.49546204213643       -0.14936038651790
H           -5.34334813920865       -1.86639621751538        0.41149043681658
H           -3.27108344676537       -4.05530670736510       -0.10694287991740
H           -3.90362207097902       -3.62778198493689        1.48062407613202
H           -3.01463371038128       -1.29880038245531        1.18445083184957
H           -1.77492004650153       -2.55235589281952        1.24835119988014
H           -2.81694553375615       -1.21011598436578       -1.29267527890637
H           -1.64469717620946       -2.53569310693784       -1.25682038715627
H            0.44165357368897       -3.19254493734786       -0.47945911903249
H            2.85173920846361       -3.26177754535628       -0.13876024893358
H            4.97501947102468       -0.15935656000106        0.38801215893871
H            3.02275453778411        1.01927947944698        0.20470048058340
H            1.21829485376300        3.04999636923731        0.11669352659483
H           -1.85659126244874        5.29862710292877       -0.09126944813630
H           -3.02956086487136        3.38676362307139       -0.43485649460064
H           -3.24600050833217        0.96284017790596       -0.66840397021616
