  50
  -80.5103152626000       0.369572837756619      !
 C          6.0826529868        2.7143738819       -0.7855337053
 C          4.8717845596        3.2181292652       -0.3021824100
 C          3.8321602786        2.3490112291       -0.0553837601
 C          4.0220525904        0.9829243909       -0.3101052820
 N          3.0151362642        0.0599479785       -0.1041378088
 C          1.6536861316        0.2847292441       -0.1731971617
 C          0.9456569577        1.3489907013       -0.6952438925
 C         -0.4439469267        1.3147714083       -0.6591704632
 C         -1.1218883890        0.1977310926       -0.1234335874
 N         -2.5146013771        0.1993654150       -0.0984740573
 C         -3.3153798447        1.2377870390        0.3336308749
 C         -2.9564046857        2.4621518655        0.8795539455
 C         -3.9714866086        3.3203326289        1.2668085597
 C         -5.3109018633        2.9679818969        1.1288653639
 C         -5.6755055078        1.7359091175        0.6141178652
 C         -4.6752554462        0.8608231699        0.2177388529
 C         -4.6835946004       -0.4729616697       -0.3199446634
 C         -5.6962211507       -1.3523646884       -0.6732580070
 C         -5.3482197889       -2.5816560973       -1.2058949556
 C         -4.0145459236       -2.9260979440       -1.4051362117
 C         -2.9872429839       -2.0635640028       -1.0622924018
 C         -3.3286074929       -0.8434132471       -0.4958149935
 C         -0.4291487280       -0.9042392695        0.3564523564
 C          0.9695112513       -0.8817675284        0.3249759724
 C          1.9551401484       -1.8282744478        0.6525649785
 N          1.8647860079       -3.0761048504        1.1350261345
 C          2.9782695922       -3.7584423820        1.3244615655
 C          4.2410804401       -3.2598665473        1.0645939235
 C          4.3780715576       -1.9572410150        0.5356844883
 C          3.2279642279       -1.2426807908        0.3423591333
 N          5.2023829879        0.5009004533       -0.7264919545
 C          6.1881800970        1.3450732724       -0.9546047171
 H          6.9140618737        3.3656905341       -0.9986359562
 H          4.7572585098        4.2741592059       -0.1069438895
 H          2.9071309046        2.6951487602        0.3757476315
 H          1.4418493905        2.1812066292       -1.1694746351
 H         -1.0146905191        2.1123429950       -1.1050491594
 H         -1.9204083683        2.7323891002        1.0112932142
 H         -3.7173802178        4.2811810383        1.6883627407
 H         -6.0747312191        3.6645664616        1.4396592197
 H         -6.7141915294        1.4567965185        0.5268736026
 H         -6.7315747860       -1.0792137229       -0.5386703929
 H         -6.1217346518       -3.2823633829       -1.4821254517
 H         -3.7742339218       -3.8821320102       -1.8450773043
 H         -1.9573789327       -2.3285155606       -1.2426329679
 H         -0.9459242184       -1.7449119328        0.7887979593
 H          2.8477634226       -4.7629411434        1.7045931945
 H          5.1110995557       -3.8681912403        1.2463000074
 H          5.3427759747       -1.5516917000        0.2781357536
 H          7.1100267223        0.8913860603       -1.2951116503
  50
  -80.5102597898000       0.348502991936131      !
 C          5.8901347220        1.6710163389       -2.4628725853
 C          6.1489097681        1.6257472347       -1.0895955765
 C          5.2058406702        1.0811916071       -0.2460684916
 C          4.0186440735        0.5803016665       -0.7976702565
 N          3.0347979777        0.0255897039       -0.0016107015
 C          1.6783636762        0.1365561519       -0.2248581942
 C          1.0003697316        0.7565085849       -1.2547233557
 C         -0.3880179512        0.7279375508       -1.2487524030
 C         -1.0880416401        0.0986541314       -0.1957716099
 N         -2.4791918781        0.0986854774       -0.2142052110
 C         -3.2974559016        0.4013781528        0.8567970746
 C         -2.9578825376        0.8294375900        2.1322794729
 C         -3.9878699622        1.1020085500        3.0172338608
 C         -5.3210484065        0.9675112709        2.6414087617
 C         -5.6664250571        0.5735764121        1.3597986162
 C         -4.6513567215        0.2931566558        0.4571446485
 C         -4.6378567689       -0.1047321205       -0.9249061693
 C         -5.6354943781       -0.3956352952       -1.8434565600
 C         -5.2661009797       -0.7942002834       -3.1168884090
 C         -3.9258852060       -0.9221772461       -3.4690150093
 C         -2.9129263064       -0.6389891835       -2.5678641474
 C         -3.2763286165       -0.2079921532       -1.2999629836
 C         -0.4189890509       -0.5148888822        0.8571750616
 C          0.9780449727       -0.5063890029        0.8558362558
 C          1.9536933198       -1.0308214069        1.7232162602
 N          1.8328113364       -1.7289717384        2.8652189060
 C          2.9387496550       -2.1622181847        3.4424774154
 C          4.2075660377       -1.9578709787        2.9348873403
 C          4.3732248255       -1.2004656595        1.7522437953
 C          3.2357601753       -0.7074489099        1.1668005554
 N          3.7599064192        0.6617576227       -2.1117413773
 C          4.6692411032        1.1936470182       -2.9044133053
 H          6.6111820211        2.0748855906       -3.1541178280
 H          7.0683227777        2.0285101164       -0.6918320871
 H          5.3430314189        1.0889575479        0.8230829380
 H          1.5396220378        1.2545682976       -2.0436471042
 H         -0.9434619368        1.2417517988       -2.0156335036
 H         -1.9273422326        0.9573533775        2.4237438880
 H         -3.7495100687        1.4301565282        4.0175258116
 H         -6.0967475995        1.1866234992        3.3596379439
 H         -6.7012495565        0.4914606656        1.0647536456
 H         -6.6757001529       -0.3189108491       -1.5662449792
 H         -6.0281581447       -1.0228711320       -3.8466499085
 H         -3.6684161281       -1.2550339541       -4.4630388226
 H         -1.8768516742       -0.7645638899       -2.8400061862
 H         -0.9570563411       -1.0420699190        1.6275593415
 H          2.7949270266       -2.7164671266        4.3606340370
 H          5.0675671897       -2.3653807030        3.4395794031
 H          5.3594407367       -1.0517269104        1.3421219928
 H          4.4003690157        1.2236386430       -3.9524752705
  50
  -80.5097147025000       0.195749982668272      !
 C          5.9311002574        2.8009430088       -0.9489658723
 C          6.1579742127        1.9317086234        0.1195945995
 C          5.1944001445        1.0009593804        0.4437719335
 C          4.0202353629        0.9557857530       -0.3199694481
 N          3.0296330442        0.0252827639       -0.0627831820
 C          1.6717565157        0.2409724451       -0.1804360514
 C          0.9851310219        1.3256418815       -0.6871501708
 C         -0.4041727613        1.3041663570       -0.6589236740
 C         -1.0956400184        0.1850058308       -0.1474867125
 N         -2.4871948170        0.1921513987       -0.1371257643
 C         -3.2897357282        1.2294887205        0.2959635498
 C         -2.9322932039        2.4478125964        0.8559849265
 C         -3.9489821033        3.3036684460        1.2445153139
 C         -5.2877274425        2.9545294472        1.0942716263
 C         -5.6508377234        1.7276058802        0.5658915726
 C         -4.6491252995        0.8549312923        0.1683700700
 C         -4.6558272388       -0.4762198675       -0.3765768122
 C         -5.6670711118       -1.3513515589       -0.7438450248
 C         -5.3166039361       -2.5788501331       -1.2793650196
 C         -3.9819685635       -2.9254257498       -1.4681207591
 C         -2.9559846793       -2.0668469432       -1.1111382707
 C         -3.3002402596       -0.8486574823       -0.5425844746
 C         -0.4186737744       -0.9197505682        0.3568634913
 C          0.9782452353       -0.8943310896        0.3715673298
 C          1.9559547455       -1.8100267216        0.8001124467
 N          1.8462783264       -3.0258779467        1.3596784699
 C          2.9526015871       -3.7222779541        1.5539106293
 C          4.2181498887       -3.2600552196        1.2543830505
 C          4.3723374375       -1.9799032271        0.6664944460
 C          3.2340773781       -1.2418465396        0.4782843020
 N          3.7860937938        1.8219250771       -1.3161710519
 C          4.7184641955        2.7070320756       -1.6096813773
 H          6.6669328272        3.5323133857       -1.2401573873
 H          7.0691545893        1.9956902178        0.6954932898
 H          5.3103086962        0.3544592215        1.2985574607
 H          1.5157280867        2.1583240239       -1.1164105903
 H         -0.9653067380        2.1166552459       -1.0897097537
 H         -1.8970347497        2.7147039316        0.9989368717
 H         -3.6961965294        4.2589727325        1.6789770225
 H         -6.0529166283        3.6484395387        1.4081918255
 H         -6.6894688543        1.4501717961        0.4709802603
 H         -6.7030347045       -1.0757499219       -0.6195600835
 H         -6.0890467121       -3.2757013305       -1.5678831823
 H         -3.7397090551       -3.8814900039       -1.9067071876
 H         -1.9248912358       -2.3338158597       -1.2809053643
 H         -0.9505616423       -1.7502219838        0.7905445389
 H          2.8108917671       -4.7084402803        1.9755847380
 H          5.0812270951       -3.8775939366        1.4380699199
 H          5.3450827972       -1.6501850020        0.3359091863
 H          4.4739456880        3.3710333077       -2.4289080653
  50
  -80.5089393561000       8.617418763897790E-002 !
 C          6.0791488625        1.3437783812       -2.4922000741
 C          4.9870745473        2.2005507781       -2.3256003627
 C          3.9573419266        1.8265372893       -1.4914760628
 C          4.0291486606        0.5820080038       -0.8484756462
 N          3.0145614305        0.1305081345       -0.0263374244
 C          1.6528655936        0.3023794894       -0.1939514126
 C          0.9401827248        0.9517490722       -1.1813500472
 C         -0.4495806309        0.9285185802       -1.1341337709
 C         -1.1270694532        0.2351354411       -0.1086650153
 N         -2.5182280303        0.1806159001       -0.1378105420
 C         -3.3648845749        0.3291412100        0.9439957270
 C         -3.0690671179        0.6262683184        2.2671868369
 C         -4.1243794487        0.7393860917        3.1562650640
 C         -5.4436197342        0.5799090099        2.7420920392
 C         -5.7482439565        0.3231974969        1.4168942193
 C         -4.7065162911        0.2011342980        0.5095348034
 C         -4.6562663361       -0.0436058665       -0.9062429032
 C         -5.6292625955       -0.2644230854       -1.8697420048
 C         -5.2282077849       -0.5092319200       -3.1713339236
 C         -3.8785705590       -0.5629668419       -3.5066112860
 C         -2.8910389964       -0.3476186028       -2.5609483815
 C         -3.2864235648       -0.0551346332       -1.2627936060
 C         -0.4291371399       -0.4295102777        0.8903671000
 C          0.9692046918       -0.4185964868        0.8505893836
 C          1.9548247638       -1.0280474783        1.6466422291
 N          1.8698707617       -1.7999844565        2.7400317101
 C          2.9890778125       -2.2083058966        3.3069404817
 C          4.2509716903       -1.9476716450        2.8041951998
 C          4.3826772708       -1.1366849153        1.6557427278
 C          3.2274408482       -0.6774654128        1.0860635041
 N          5.1088626415       -0.2053298199       -0.9662796841
 C          6.0922261491        0.1715605978       -1.7575789356
 H          6.8913771567        1.5937264373       -3.1542527534
 H          4.9580859294        3.1541554343       -2.8313513929
 H          3.1373244160        2.4944400953       -1.2845435477
 H          1.4252954563        1.4624422415       -1.9968240902
 H         -1.0185589855        1.4779320628       -1.8651067100
 H         -2.0523867037        0.7738140374        2.5953235543
 H         -3.9180494916        0.9591125028        4.1927895455
 H         -6.2395679861        0.6692490857        3.4659068600
 H         -6.7723695077        0.2208598967        1.0921999657
 H         -6.6756735026       -0.2481444370       -1.6058333833
 H         -5.9699765054       -0.6760965877       -3.9377422722
 H         -3.5932769889       -0.7836363792       -4.5241613110
 H         -1.8482112808       -0.4241813899       -2.8251432771
 H         -0.9397562619       -1.0159572880        1.6357180874
 H          2.8654643035       -2.7897203849        4.2110464193
 H          5.1236066768       -2.3361489173        3.3017384100
 H          5.3507411435       -0.8725815358        1.2600061847
 H          6.9260125278       -0.5164728143       -1.8110039354
