  79
       -123.35199233
 C         10.0928990123       -0.2060678828        0.0082075013
 C          9.3903240111        0.1023075941       -1.1455693697
 C          8.0068110850        0.0963619912       -1.1392265129
 C          7.3256767983       -0.2224673450        0.0290361857
 N          5.9027587566       -0.2299682402        0.0390578488
 C          5.2165674647        0.8266424100        0.6105821058
 C          5.8965167958        1.9070594227        1.1647751465
 C          5.2075715368        2.9318171818        1.7887404292
 C          3.8265953904        2.8758170125        1.8855527569
 C          3.1335937393        1.8229504068        1.3194814162
 C          3.8045547388        0.8046813680        0.6419553491
 N          3.1147157493       -0.2359674528        0.0404142541
 C          1.7077326341       -0.2414050851        0.0461760356
 C          0.9952009937       -1.3038261290        0.6402206589
 C         -0.3653715370       -1.2915839390        0.6643472642
 C         -1.1173246560       -0.2207267309        0.0908900935
 C         -2.5157927996       -0.3052156041        0.1661787966
 N         -3.1384546351       -1.4565693899        0.4817407692
 C         -4.4400128618       -1.2401697403        0.3367355136
 C         -5.4982970795       -2.1835890093        0.4971956770
 C         -5.2248600218       -3.5164553843        0.8093972229
 C         -6.2474824640       -4.4316571097        0.9224787167
 C         -7.5567082900       -4.0138784808        0.7117982716
 C         -7.8382682428       -2.6984137884        0.4091090765
 C         -6.8252371394       -1.7345556051        0.3018483919
 C         -7.0901456404       -0.3341835676        0.0295709974
 C         -8.3944972334        0.1561926203       -0.0676025577
 C         -8.6683399924        1.4907127519       -0.2741334789
 C         -7.6204291643        2.4079923612       -0.3689096931
 C         -6.3250917623        1.9739688132       -0.2908557448
 C         -6.0143325437        0.6060170604       -0.1175632113
 C         -4.7023085423        0.1071208100       -0.0368497557
 N         -3.4608939419        0.6963293840       -0.1427219745
 C         -3.1595667382        2.0305757902       -0.4253462308
 C         -2.4426701101        2.7922002560        0.5002722403
 C         -2.1244927358        4.1046778399        0.2138059798
 C         -2.5118162489        4.6734011216       -0.9904124599
 C         -3.2222377633        3.9183770476       -1.9130205971
 C         -3.5457643614        2.6046340481       -1.6386108994
 C         -0.3782818488        0.8126196868       -0.5557209148
 C          0.9868877151        0.8022276515       -0.5598184550
 C          3.8084286198       -1.2712506104       -0.5664091180
 C          3.1412922379       -2.2873218765       -1.2508988112
 C          3.8382875459       -3.3368287663       -1.8183831724
 C          5.2190543239       -3.3908118427       -1.7167830340
 C          5.9043533657       -2.3656995884       -1.0894384229
 C          5.2203124446       -1.2884178673       -0.5341839151
 C          8.0279155682       -0.5334235821        1.1868418761
 C          9.4114163986       -0.5229419620        1.1722382009
 H         11.1720895932       -0.1995217170        0.0000671157
 H          9.9195578619        0.3506972904       -2.0530206884
 H          7.4474755539        0.3352629609       -2.0319428884
 H          6.9733161517        1.9389884515        1.1092710886
 H          5.7531205360        3.7603237905        2.2118979848
 H          3.2844199151        3.6520766372        2.4020808484
 H          2.0604683249        1.7786790648        1.4043846463
 H          1.5476765173       -2.1071257517        1.1064223918
 H         -0.9212814815       -2.0835663162        1.1378594053
 H         -4.1933494369       -3.7993114435        0.9508945070
 H         -6.0381612960       -5.4629207343        1.1653179731
 H         -8.3659431914       -4.7264726544        0.7862332001
 H         -8.8694360144       -2.4250837588        0.2514470037
 H         -9.2287484766       -0.5194691354        0.0327025411
 H         -9.6915707460        1.8285888295       -0.3447043255
 H         -7.8325825500        3.4595577680       -0.4981265389
 H         -5.5248061314        2.6928587032       -0.3396896542
 H         -2.1431521211        2.3398714216        1.4338316666
 H         -1.5745758482        4.6909247928        0.9352465734
 H         -2.2603861194        5.6995975483       -1.2108004307
 H         -3.5196288094        4.3559964642       -2.8546379688
 H         -4.0943066966        2.0090883054       -2.3536252135
 H         -0.8936980423        1.5869665432       -1.0970767811
 H          1.5328033963        1.5834188822       -1.0705151965
 H          2.0683586457       -2.2451589307       -1.3397712898
 H          3.2988477637       -4.1124308055       -2.3386105421
 H          5.7674136609       -4.2175938073       -2.1397503662
 H          6.9812311181       -2.3946739343       -1.0320796774
 H          7.4849585790       -0.7787814416        2.0877263308
 H          9.9571577013       -0.7648539277        2.0715218886
