71
 energy: -107.091300909801 gnorm: 0.000082655100 xtb: 6.7.1 (edcfbbe)
C            2.22418922055328        4.49094314351552        1.35200017213465
C            3.54801282243178        4.24323219290471        1.02741896600415
C            4.03560968753653        2.95107773362063        1.04650219619105
C            3.19825571755217        1.89201730423876        1.39719467380004
C            1.85722018376273        2.13624911726503        1.71924432710837
C            1.38962850969441        3.43756034132331        1.69297640764293
C            0.98721782019331        0.98740931821600        2.13850515082899
C            1.47887259477963       -0.33201393775987        1.61525220041424
C            2.85682132860748       -0.50658236385533        1.49460397593108
C            3.42642921285822       -1.77726571532765        1.44127839869134
C            2.59397920204040       -2.88897778077685        1.58283732808612
C            1.23351072681892       -2.74422485453277        1.63824196938153
C            0.61265502913186       -1.46885007061946        1.54195085046966
C           -0.79485489912963       -1.39744862501645        1.30791912312487
C           -1.65402466581665       -2.34335269805356        1.94756844710617
C           -2.99938260641339       -2.32281855348804        1.78237591914495
C           -3.58860476692014       -1.39336757767517        0.88324440634711
C           -2.76517008537879       -0.51707306393409        0.13793609509474
C           -1.40311536977002       -0.48328932223368        0.35537438145842
C           -0.55146260553160        0.43795519997476       -0.41681159679197
C           -0.81067983896185        1.81322450503563       -0.34817991074472
C           -0.00006519733574        2.72909259995974       -0.98619753247161
C            1.13108088460872        2.30229953274278       -1.65999987871748
C            1.40180260774736        0.94068755647626       -1.74525494594422
C            0.53628547082450       -0.00340898040915       -1.17630031924407
C            0.72348628025527       -1.44564415575807       -1.56044724311898
C            2.16457397808733       -1.78191639955605       -1.81102627277681
C            2.65629622709394       -3.06582213630396       -1.66365332174697
C            3.97553776614555       -3.36348706998897       -1.96769412192711
C            4.81959527976675       -2.36472940769120       -2.42416854473990
C            4.35098844838460       -1.07229117653079       -2.56505428678608
C            3.02498546937174       -0.77404667462865       -2.25965009925867
N            2.53749713892126        0.50809907471865       -2.40395983544596
C           -3.41937347108650        0.21372325388526       -1.00832536364483
C           -4.88598289197834        0.45546064268301       -0.81283911081331
C           -5.55823904235292        1.45633881661027       -1.48552432989228
C           -6.93426902545749        1.60505501668178       -1.36302147250523
C           -7.65725800648200        0.72847940526322       -0.55691065969034
C           -7.01071839521580       -0.26911448274704        0.13550600192893
C           -5.61926595828793       -0.40864078843991        0.02766635382100
N           -4.94949706847987       -1.36538482774868        0.73564348236044
N            3.67901723142428        0.60719588062561        1.46116618189242
H            1.84326275575755        5.50128870931593        1.34219675740227
H            4.20385144423748        5.05940160802850        0.76074601498119
H            5.06914406458941        2.75040693041355        0.79899573861830
H            0.35942885819920        3.63021740108526        1.95430695254268
H            1.00766506869640        0.92743858211042        3.24016679190640
H           -0.05146222268270        1.16790087191884        1.86631979026910
H            4.49453560694898       -1.89311956068785        1.33727442083208
H            3.03306938620771       -3.87617560498298        1.61021685927966
H            0.61204480117210       -3.62706373605018        1.66652443380990
H           -1.21530737142804       -3.04309371180004        2.64282390379410
H           -3.63986318197000       -3.00435663432663        2.32444272582985
H           -1.64536214750612        2.16296268293704        0.24375559177525
H           -0.22472623640458        3.78382008288761       -0.93116379836773
H            1.80316002198329        3.01454660882333       -2.11619508716716
H            0.16294310372406       -1.61573901940899       -2.49285240735936
H            0.30013882470967       -2.11543455351786       -0.81307814987891
H            1.99462396451820       -3.84456161512594       -1.31371825816585
H            4.34203002885639       -4.37268941011972       -1.85270091886053
H            5.84777829784516       -2.59107726352769       -2.66710107025193
H            5.00671568492155       -0.28622908528951       -2.91416966401961
H            3.18355832376826        1.22017459028344       -2.71359452172706
H           -2.91068854656300        1.14957970167180       -1.23507950267715
H           -3.29810926595949       -0.42008693205887       -1.90074220512076
H           -5.00184796687867        2.12691888246845       -2.12544404539051
H           -7.44263903892497        2.39331551425767       -1.89692385341043
H           -8.72864844678990        0.83567733366682       -0.47086073490197
H           -7.56214213633913       -0.94680023312541        0.77226973299911
H           -5.49164956211566       -2.00021269834462        1.30714259529107
H            4.65687466862543        0.45278247966910        1.26473803746257
