64
 energy: -101.046384051888 gnorm: 0.000069919997 xtb: 6.7.1 (edcfbbe)
C           -6.50367897324154       -1.71693717259798        0.32608920279076
C           -5.59089658815671       -0.49618145249215        0.09687467571459
C           -6.44281542738933        0.76460309477501       -0.14801189420864
C           -4.74945731064812       -0.27751925034483        1.33754511143044
C           -5.36896454045758       -0.01739238340743        2.55264191910724
C           -4.64707525895769        0.19619313873962        3.71280896970885
C           -3.26223754996855        0.15170858328568        3.67297914484596
C           -2.61945084245894       -0.10575300240334        2.48238098170357
C           -3.34798696007860       -0.32472929084437        1.30549048381045
N           -2.67504455578363       -0.57972489004251        0.12658575024078
C           -1.25055392340367       -0.63351056446016        0.14452151623577
C           -0.60683251876333       -1.83999219255589        0.45092803348801
C            0.76203179716345       -1.88092214406403        0.46244255481638
C            1.52487005529610       -0.73790343262890        0.17217412425825
C            0.88136009344929        0.48472484376806       -0.13586451892752
C           -0.52099963044501        0.49990815783538       -0.14020176284176
C            1.67710664459563        1.65229530892094       -0.43135221139784
C            1.11427254874410        2.89299159120138       -0.73804147593832
C            1.90655910787653        3.99648476879146       -1.02027652189052
C            1.30167182920910        5.23047459888775       -1.32354672473229
N            0.80658176698309        6.23879114961634       -1.57043380146569
C            3.31311913558168        3.88718233801444       -1.00446571201119
C            3.88244975577389        2.68302192452989       -0.70476406400016
C            3.09475025318870        1.55143238125641       -0.41366575639138
C            3.74026640368922        0.31921075641433       -0.10413654837768
N            5.06476136922521        0.22431412226940       -0.08582577829102
C            5.68135621616495       -0.92340204193928        0.20347418966002
C            7.07202347833149       -1.03982561813511        0.22556834725725
C            7.67573326968632       -2.24505069804630        0.53020137320795
C            6.90688287490070       -3.36505409140965        0.81990740340736
C            5.52620812375715       -3.28665746656015        0.80680042005843
C            4.88372530009502       -2.08795443445203        0.50437060359811
N            3.54921330899755       -1.97747750326455        0.48125703089931
C            2.95442675851113       -0.83442922631382        0.19258612993801
C           -3.33721778396067       -0.79404744283236       -1.06649474981430
C           -2.59892380947803       -1.05726296244907       -2.22817755044207
C           -3.23094462107034       -1.27354127851451       -3.43264877781448
C           -4.61466889788518       -1.23143988736789       -3.50202586471263
C           -5.34646803273559       -0.97689220425805       -2.35646199557164
C           -4.73807672890032       -0.75615107947951       -1.12798303669002
H           -7.13123928938714       -1.57017438254377        1.20015247973674
H           -5.89997876509971       -2.60939767738462        0.48112672068808
H           -7.14781189646786       -1.88285822112174       -0.53235776669820
H           -7.06152982797299        0.64679477209032       -1.03265472517247
H           -5.79650209605986        1.62856343434584       -0.29236446843186
H           -7.09376544325570        0.96089467721001        0.69873540530431
H           -6.44595874063523        0.02257989229530        2.60118542267181
H           -5.16081419496760        0.39711242652651        4.64048726590432
H           -2.68273252063020        0.31843869857393        4.56846848972459
H           -1.54155092506138       -0.13839799481633        2.45386651768334
H           -1.19449439542056       -2.71753300424844        0.67241695847313
H            1.29187243267890       -2.79236897716501        0.69268894070211
H           -1.06039735796413        1.40480256513329       -0.37046572781470
H            0.04364061942485        3.02259114783899       -0.76154915877962
H            3.91792949227900        4.75330043804948       -1.22747395846528
H            4.95505817816783        2.56500950162461       -0.68239534086245
H            7.65861070784054       -0.16263118562303       -0.00149622947554
H            8.75312838643803       -2.31268628336264        0.54199729848984
H            7.38623731952542       -4.30275159718395        1.05675229310749
H            4.91611003104999       -4.14876924010244        1.02957429996830
H           -1.52194013780173       -1.09229560899614       -2.17686766768098
H           -2.64400898730527       -1.47469449396975       -4.31614239132824
H           -5.12002286303547       -1.39816108003974       -4.44101314277917
H           -6.42266429114936       -0.95215721828541       -2.42749413865846
