64
 energy: -101.046320242228 gnorm: 0.000109323368 xtb: 6.7.1 (edcfbbe)
C           -6.50445715083154       -1.56550337354115        0.75887816824089
C           -5.59253291373308       -0.48781547935160        0.14029422374063
C           -6.44479415083188        0.62969705061310       -0.49262353507313
C           -4.74000394520145        0.11190568986700        1.23937835485498
C           -5.35128672626627        0.74086352678631        2.31584135353626
C           -4.62272153207543        1.28807462995018        3.35604329783693
C           -3.23960239709733        1.19974566556013        3.33960744682333
C           -2.60516715925425        0.58204860144096        2.28463224222693
C           -3.33900839882536        0.04445383480849        1.21851767679142
N           -2.67481473714288       -0.55740648080357        0.16612034643307
C           -1.25182028554993       -0.61251516949216        0.18541835313060
C           -0.60971472522986       -1.80176801166594        0.55752175428513
C            0.75879386586662       -1.84741126090298        0.56496020415947
C            1.52465790752556       -0.72292809423495        0.21578617446753
C            0.88368279501404        0.48513698374122       -0.14949601023530
C           -0.51843147307591        0.50148498522740       -0.16121487195130
C            1.68212320336569        1.63793080771379       -0.49231715233253
C            1.12200882731442        2.87030107762596       -0.83520629935261
C            1.91662739172907        3.96117993017802       -1.15729799680862
C            1.31397749354104        5.18783006612004       -1.49308466129642
N            0.81975037922024        6.18972182342956       -1.76654910270625
C            3.32279093352958        3.84648646614091       -1.14779128462715
C            3.88952322088053        2.65049735154451       -0.81242149913341
C            3.09951133119459        1.53252975045764       -0.47804154621515
C            3.74225606425911        0.31077297269380       -0.12430874584208
N            5.06634747119414        0.20930039527801       -0.11564712403200
C            5.68022781777757       -0.92837731903469        0.21589584264403
C            7.07040313593580       -1.05206174014100        0.22714644853021
C            7.67103625028669       -2.24728118497741        0.57445255097059
C            6.89956413022075       -3.34925867294901        0.92074979805390
C            5.51932598130771       -3.26265854404204        0.92214153471676
C            4.87986751840129       -2.07400239954666        0.57668454298707
N            3.54594863255218       -1.95566906065745        0.56770620494943
C            2.95374317387636       -0.82415598422688        0.23208275447538
C           -3.34880894288954       -1.12444007327163       -0.89909772204453
C           -2.62153105886886       -1.69377753436681       -1.95318891463055
C           -3.26522998377797       -2.27999785052592       -3.02045159165129
C           -4.65045337197494       -2.30403791931081       -3.06139446670159
C           -5.37134736904758       -1.72450591511170       -2.03334934622115
C           -4.75059092825715       -1.12524797342358       -0.94546791956649
H           -7.13522774508955       -1.13888583326429        1.53313033994459
H           -5.90019354591331       -2.35448558144072        1.20315522508938
H           -7.14577826466159       -2.00828775397810        0.00259859492526
H           -5.79833792045789        1.39012980729335       -0.92718823436214
H           -7.07735004905314        1.10215893710218        0.25298971136306
H           -7.08176173058469        0.23189411998461       -1.27707448661667
H           -6.42745497639188        0.80794736120598        2.34952464935576
H           -5.12999158827168        1.77308068761770        4.17599646256688
H           -2.65448817189059        1.61055330434699        4.14852932340811
H           -1.52905623409031        0.50880468405393        2.28094047893353
H           -1.19914810473360       -2.66385626390112        0.82925179096512
H            1.28619282991349       -2.74717364943580        0.84196337904158
H           -1.05487215324374        1.39366112303218       -0.44249334552621
H            0.05176655000897        3.00395547247432       -0.85379388049005
H            3.92950599767883        4.70240759137480       -1.40268885307870
H            4.96183254783302        2.52941218772434       -0.79234354068301
H            7.65925243236257       -0.18895915346313       -0.04378921269935
H            8.74808271810059       -2.32122772962673        0.57516515115611
H            7.37645007593751       -4.27925591526994        1.19063933966054
H            4.90720630090907       -4.11084226329395        1.18847272299395
H           -1.54342234609349       -1.67002584544778       -1.92992762077851
H           -2.68574417261728       -2.71550070506760       -3.82045267143134
H           -5.16513198070677       -2.76407528964914       -3.89105386975389
H           -6.44871286797586       -1.74117269453768       -2.08629379356013
