64
 energy: -101.091860318594 gnorm: 0.000022849916 xtb: 6.7.1 (edcfbbe)
C           -6.49908655258832       -1.53199323999099        0.79646349539931
C           -5.58810665716770       -0.48391526278334        0.12973689552465
C           -6.43844246505901        0.61061574871159       -0.54251050193937
C           -4.72414656668451        0.15659869354427        1.19999722804086
C           -5.33127303428445        0.82719077669004        2.25360567227380
C           -4.60212685246858        1.40659827563287        3.27562128797748
C           -3.22277255275848        1.30420396549961        3.26199207665650
C           -2.59370492995446        0.64455968340192        2.22671648770850
C           -3.32724140403215        0.08050852041773        1.17830197946355
N           -2.66575552694526       -0.57049434991631        0.14505613648334
C           -1.24900980513696       -0.63833689618240        0.16361882238025
C           -0.61108255104835       -1.84011227023574        0.47945382309883
C            0.76165729744493       -1.89138708416416        0.49091157770100
C            1.52628817583917       -0.75771381252079        0.19602455802661
C            0.89478142277750        0.46317414274752       -0.11653743073898
C           -0.50265904143095        0.48957020168130       -0.13039452787949
C            1.69927270950723        1.64082905906649       -0.41766763747073
C            1.12602563448491        2.87962510434025       -0.71424395528531
C            1.91659922439981        3.98473948597525       -1.00236557936904
C            1.30074553819678        5.22217632863824       -1.29772420844757
N            0.80167316197569        6.22750086170660       -1.53714069222239
C            3.31439570824216        3.88423686578487       -1.00299889977974
C            3.89140102366119        2.67458031546091       -0.70698348002031
C            3.10715850292214        1.55306562161719       -0.41268585692605
C            3.75740829803141        0.29886963020061       -0.09772721571350
N            5.07658845396428        0.24554875515048       -0.09975475648587
C            5.66214734604988       -0.92343538035332        0.19747433391979
C            7.07044882423975       -1.02589179164856        0.20551345332954
C            7.66094709352583       -2.21916827464335        0.50894371861888
C            6.88370251804219       -3.35424713323386        0.81506270695316
C            5.51963154980503       -3.29119135073759        0.81665548786702
C            4.87405456657399       -2.07398938816495        0.50749242128601
N            3.53506736097789       -2.00736653875285        0.50523858779712
C            2.96924050496407       -0.85078611010745        0.21031521185290
C           -3.35447538423656       -1.17632462188661       -0.89765393628046
C           -2.64294890784627       -1.77525647458483       -1.94178174171750
C           -3.29788707838609       -2.39250138025371       -2.98703633574201
C           -4.68066939704422       -2.41580234214829       -3.01504170984409
C           -5.38638277211012       -1.79961254524987       -1.99807977832744
C           -4.75276009622631       -1.16918255139511       -0.93529405683505
H           -7.12551339313541       -1.07399114684750        1.55680255635586
H           -5.89345250635291       -2.30335648448630        1.26961335082542
H           -7.14557491484089       -2.00549619193940        0.06285898276456
H           -5.78990200335366        1.34983617956431       -1.01001136150297
H           -7.06537239491277        1.11680459841501        0.18615991362385
H           -7.08191963266719        0.18675018558219       -1.30831709985119
H           -6.40770864334243        0.90088095808445        2.28430271397472
H           -5.10722613103038        1.92296552737631        4.07809311168927
H           -2.63211106676572        1.73385539297959        4.05786979227766
H           -1.51798171286555        0.55844045188538        2.23459175425789
H           -1.20309156440156       -2.71333500340010        0.70788533305895
H            1.28440017357469       -2.80374448820472        0.73068139057626
H           -1.03908894766647        1.39349233065901       -0.37062840040810
H            0.05553719796178        3.00718344822881       -0.72356918039598
H            3.91646057310714        4.75055445683714       -1.23110410346105
H            4.96339530177712        2.55683951625694       -0.69262108437240
H            7.64725710157413       -0.14520782708433       -0.03168388785751
H            8.73740573712625       -2.30354361461639        0.51663824184365
H            7.38246198190504       -4.28263454762776        1.05049250810109
H            4.90662885938149       -4.14861553906260        1.04801589097267
H           -1.56402882064435       -1.75211438577593       -1.93610071956339
H           -2.72466740298850       -2.85097955976189       -3.77953668182238
H           -5.20617322860184       -2.89925528213990       -3.82487162513252
H           -6.46492021558985       -1.81159230696694       -2.04010335749216
