  76
       -103.36281605
 C         -1.6843033065       -2.6319355600       -2.1797444591
 C         -1.2911986201       -3.3321805287       -0.9175260654
 C         -0.8610621884       -4.6535446626       -0.9459574195
 C         -0.4843188308       -5.3074650897        0.2133899229
 C         -0.5283137777       -4.6428568845        1.4293910339
 C         -0.9506012778       -3.3296157161        1.4733862473
 C         -1.2998570496       -2.6669518160        0.3033958448
 P         -2.2326828468       -0.9720591788        0.5552881789
 C         -0.6988287332       -0.0254615319        0.9131813777
 P         -0.1889106179        0.5408741298       -0.7933769809
 C          1.1902929478        1.7033222180       -0.2918228422
 P          2.7047177096        0.9347450684       -1.0515892683
 C          2.5975871144       -0.6520040754       -0.1202433427
 C          2.7847796635       -0.6763711123        1.2570151811
 C          2.6954165079       -1.8647511960        1.9583705261
 C          2.4204048473       -3.0402733017        1.2811483010
 C          2.2379466366       -3.0213383029       -0.0896808469
 C          2.3238745296       -1.8369681875       -0.8081443481
 C          2.1532236900       -1.8327357996       -2.2942699485
 C          4.0456508265        1.7396781929       -0.0920415328
 C          3.8511170588        2.9277717608        0.6047989441
 C          4.8946838565        3.5314812226        1.2828067814
 C          6.1530625976        2.9579830693        1.2609626093
 C          6.3639309737        1.7961780692        0.5389815115
 C          5.3299547267        1.1829280779       -0.1521365073
 C          5.5849045088       -0.0590330893       -0.9468918652
 C         -1.5299590961        1.7694199025       -1.0517254888
 C         -1.8070141938        2.8036503141       -0.1640155046
 C         -2.8611397587        3.6634713392       -0.4032812431
 C         -3.6410990201        3.5115365351       -1.5381017055
 C         -3.3528725485        2.5064877820       -2.4437575079
 C         -2.3018483501        1.6396859256       -2.1997253897
 C         -3.5087230912        0.3837022745        1.0297230922
 C         -3.3807034706        1.1096184792        2.2107157119
 C         -4.3737004655        1.9824284530        2.6074459660
 C         -5.5232493624        2.1120468164        1.8456702323
 C         -5.6865352714        1.3333655940        0.7125914960
 C         -4.7030975886        0.4466157882        0.3037900593
 C         -4.8997120058       -0.4064668734       -0.9086698719
 H         -2.4489068871       -3.1944213137       -2.7139755044
 H         -2.0685395970       -1.6390693916       -1.9409112467
 H         -0.8241516195       -2.5196685596       -2.8377628919
 H         -0.8274450757       -5.1744875406       -1.8937935653
 H         -0.1629229368       -6.3382623169        0.1716724705
 H         -0.2446679687       -5.1517817133        2.3398076947
 H         -1.0033236375       -2.8004399612        2.4175704210
 H          0.0801539921       -0.6849062514        1.3017199953
 H         -0.8537662371        0.8343491694        1.5641967061
 H          1.2689785598        1.7914974929        0.7955582029
 H          1.0228871726        2.6836374957       -0.7472120991
 H          3.0162969950        0.2414810241        1.7821813406
 H          2.8425428870       -1.8730014017        3.0289799872
 H          2.3526897150       -3.9738180907        1.8194959535
 H          2.0241065564       -3.9433741732       -0.6105008657
 H          1.4066480283       -1.0932436409       -2.5846140220
 H          3.0917980063       -1.5666327530       -2.7811226981
 H          1.8429308043       -2.8124548557       -2.6493349171
 H          2.8780758575        3.3971549290        0.6168980618
 H          4.7241854835        4.4507467371        1.8244089313
 H          6.9713529639        3.4205871104        1.7930869463
 H          7.3528232781        1.3601469800        0.5042257446
 H          5.2855863277       -0.9429448684       -0.3817727653
 H          6.6399501526       -0.1511219270       -1.1953780041
 H          5.0031606616       -0.0396261897       -1.8699696763
 H         -1.2004778624        2.9410437426        0.7207700645
 H         -3.0795364746        4.4543604404        0.2996726301
 H         -4.4679614856        4.1824587574       -1.7180527005
 H         -3.9497760680        2.3947633144       -3.3377227350
 H         -2.0669469410        0.8516792667       -2.9039113641
 H         -2.5004676233        0.9928004256        2.8284239963
 H         -4.2530091546        2.5584027032        3.5142329241
 H         -6.2990184994        2.8008800259        2.1459103866
 H         -6.5979071444        1.4126605357        0.1359121307
 H         -4.6143471255       -1.4364555440       -0.6872635648
 H         -5.9371065219       -0.3859334618       -1.2350742068
 H         -4.2707201595       -0.0519956969       -1.7245985985
