56
 energy: -95.790352224624 gnorm: 0.000075773144 xtb: 6.7.1 (edcfbbe)
O            3.25471997336914        3.90735777211517       -0.20909378624079
S            3.06884491767439        2.73107367930660       -1.03405138039788
O            3.24806432870089        2.93685424620278       -2.45769982819759
C            4.16064218511397        1.44134545889187       -0.49203885902486
C            5.51604670030009        1.71768440223291       -0.53911519351977
C            6.43984742097516        0.76067485158095       -0.17000416138923
C            5.97825993952967       -0.48352354767089        0.23987660325392
C            4.62882711157445       -0.75961343304582        0.29062708897088
C            3.67241730218863        0.20556052587868       -0.07078849121651
N            2.32431863741482       -0.10123420898318        0.00697905817186
C            1.97573597826258       -1.42647868802755        0.44146498500809
C            1.76668607085502       -2.42495316629530       -0.50007860659346
C            1.41796277953858       -3.69769688816273       -0.08056517353675
C            1.28266885317422       -3.97159216091633        1.27084071424802
C            1.49471585784587       -2.97289339560736        2.20774736506023
C            1.83992509991115       -1.69654190987443        1.79686816544858
C            1.28077639202755        0.75537081699550       -0.28007005311792
C           -0.04141426136870        0.32113446059727       -0.09379064401228
C           -1.12172680741716        1.14031178277147       -0.38151642903375
N           -2.42913555428164        0.64692164626084       -0.19951846577812
C           -2.88756661849232       -0.45117593812073       -0.93635414085808
C           -2.10798105690104       -1.08247128011560       -1.89783172381659
C           -2.59456927351432       -2.16944831751293       -2.60848580297472
C           -3.87308291618440       -2.63719490492687       -2.38065708897081
C           -4.67744017796435       -1.99658462179733       -1.44959839666732
C           -4.19669401853722       -0.91088834382790       -0.74039110055673
O           -5.06784471843277       -0.31010870922139        0.13772747020613
C           -4.59946277603108        0.76198950658976        0.86020715055673
C           -5.47652008492789        1.33967981069095        1.75993038171755
C           -5.06884474031166        2.40521158183721        2.54924332695448
C           -3.77389155026846        2.87179331324806        2.44405695457964
C           -2.89149017831280        2.29645917395071        1.54175069616920
C           -3.29410111561569        1.25123757931916        0.71938013285049
C           -0.91926079080391        2.44031314855134       -0.85066615201882
C            0.37440486689714        2.88396130894885       -1.02083268028226
C            1.45202132271912        2.05982019559063       -0.74578296649378
H            5.81108617647232        2.70046993455272       -0.87396101662894
H            7.49562066474889        0.97514627546313       -0.20490816871493
H            6.68167397995038       -1.25074546935010        0.52528800377911
H            4.30324786550416       -1.73524687941582        0.61245945824343
H            1.87726490385085       -2.19903194259137       -1.54992635021973
H            1.25237923458644       -4.47464974324009       -0.81098765155118
H            1.01119665798164       -4.96479118513205        1.59462068599436
H            1.38979533734034       -3.18512315550060        3.26079090965918
H            2.00556467163116       -0.90844641742229        2.51598770417749
H           -0.23621967319239       -0.67094889858957        0.28070756692168
H           -1.11576326370530       -0.71387677554123       -2.10198956132667
H           -1.96372946316741       -2.64144605019503       -3.34581522746561
H           -4.25635768615482       -3.48471590958560       -2.92663604727669
H           -5.68933680564983       -2.32016952634837       -1.26265137112233
H           -6.47487373221818        0.93720193979584        1.83017451853676
H           -5.76116272365097        2.85221273232351        3.24510240043276
H           -3.43469072090187        3.68674696729497        3.06486700499357
H           -1.87889085470586        2.66254945962258        1.48016950305158
H           -1.76058909941822        3.07451567003120       -1.07893142970744
H            0.58792043197110        3.87798722639634       -1.38212790021980
