56
 energy: -95.694533711255 gnorm: 0.000148205994 xtb: 6.7.1 (edcfbbe)
O            3.43355979878811        3.27313395090598       -0.75954080455738
S            3.15545230169632        1.89082429957646       -1.10177041343414
O            3.44409825301139        1.53177789258591       -2.48282937760450
C            4.07650773045588        0.79718868400077       -0.05167019064956
C            5.41518966230299        1.07537334251196        0.14937256603202
C            6.21232253478304        0.19912069645064        0.86433975590994
C            5.64248197433897       -0.96847197192844        1.35249929777540
C            4.30481331835804       -1.24410821305001        1.16030714756674
C            3.47262050681594       -0.35108096215826        0.46008830656705
N            2.12489607415766       -0.62596428421655        0.31951240573978
C            1.66643574705289       -1.92923220680993        0.70797556825963
C            1.57658384411091       -2.92438336212484       -0.25484555144600
C            1.11921897865505       -4.18259366387203        0.09973975082585
C            0.75550519615907       -4.44582232101416        1.41022484134951
C            0.84847772032247       -3.45092917298895        2.37044865851094
C            1.30202954180696       -2.18965260484288        2.02342666107303
C            1.16398328297676        0.26381867835892       -0.12891713687811
C           -0.18669509527981       -0.03668396378962        0.03452024837363
C           -1.17872965902590        0.85111100374578       -0.39220016453279
N           -2.54178587143449        0.49947335079343       -0.21840302832159
C           -3.07154944273357       -0.55283152359290       -0.92466199399868
C           -2.32955172575529       -1.32905368455669       -1.82562923910030
C           -2.91038081500910       -2.37467485357735       -2.49750254603487
C           -4.27968136142298       -2.67931135996414       -2.31332638573283
C           -5.04558556751431       -1.91316272085062       -1.46959530247557
C           -4.47479920328746       -0.84972562409273       -0.76998208449742
O           -5.27019939703825       -0.10119631458772        0.01870504711188
C           -4.73927119281116        0.92618756696380        0.71000288547392
C           -5.57464185478244        1.68866068251966        1.52233474263434
C           -5.06124673311211        2.71875236684240        2.27377439381619
C           -3.67244718192657        2.99724877225456        2.23801389334424
C           -2.83323339361105        2.27080628216727        1.43578196608938
C           -3.32960709231231        1.23347868945500        0.62875880351974
C           -0.84103998855222        2.07877584020712       -0.98065373429043
C            0.48634950026242        2.38283266117401       -1.14598629974464
C            1.48330927191469        1.49394716510754       -0.73273698346878
H            5.80352133573271        1.98872852807937       -0.27517547982405
H            7.25625957766343        0.41505166137108        1.02468658719504
H            6.25037326517949       -1.67566539754014        1.89643962117045
H            3.89190060845955       -2.15855995878903        1.55387333773083
H            1.86551212417636       -2.70530927543594       -1.27211342645558
H            1.04815352234352       -4.95625717030544       -0.64948616376873
H            0.39901297388249       -5.42726691344479        1.68384217603953
H            0.56596352613677       -3.65482194143377        3.39222480440470
H            1.37754724906253       -1.40537428289204        2.76179042078480
H           -0.48990437901905       -0.95898381239929        0.50274739194256
H           -1.29095606758937       -1.08995247046776       -1.98774593417406
H           -2.32239038230015       -2.96575677964460       -3.18079647806055
H           -4.72102463670705       -3.50327924330977       -2.84973294264811
H           -6.09758044384313       -2.10552885177852       -1.32776976142024
H           -6.62425410867518        1.44001940975431        1.54657289437121
H           -5.70830954909674        3.30908512082834        2.90139069870509
H           -3.27594434756340        3.78910999387393        2.85302219478162
H           -1.77627061077025        2.48500890710826        1.41483178477811
H           -1.61559425484930        2.75416298885651       -1.30703174920098
H            0.80701693673441        3.30658082432270       -1.60083484517895
