56
 energy: -95.694551554283 gnorm: 0.000042328674 xtb: 6.7.1 (edcfbbe)
O            3.42742799052497       -1.55053314548267       -2.49629402540025
S            3.14256574553417       -1.90736480105060       -1.11394344005218
O            3.41465860870465       -3.29104390069426       -0.77208686832013
C            4.07332499378187       -0.81878356568204       -0.06749444306252
C            5.41201460010463       -1.10272525923146        0.12542806810658
C            6.21600851314789       -0.23302752978215        0.84068574295732
C            5.65244154614130        0.93344729796115        1.33859168051812
C            4.31482440150646        1.21473137295977        1.15448246182139
C            3.47597201994827        0.32914493259782        0.45250205719123
N            2.12891326954233        0.61131653554723        0.31831674711501
C            1.67878439833283        1.90888453073042        0.73482127168289
C            1.31046767870640        2.13921978986739        2.05478964141749
C            0.87162353409618        3.39668797309425        2.43284567947928
C            0.79733005141645        4.41773376140019        1.49875816932656
C            1.16342451389297        4.18403056222700        0.18336312860233
C            1.60586603941227        2.92953277588538       -0.20233245459434
C            1.16215988172817       -0.27054019109624       -0.13284816143395
C           -0.18703394729090        0.03832730869591        0.02910622151798
C           -1.18360033861667       -0.84559978868745       -0.39466191060988
N           -2.54542509102834       -0.48806892644552       -0.21935158623523
C           -3.32895828490199       -1.20532842750762        0.64553131344989
C           -2.82899244497804       -2.22917491262039        1.46728171960480
C           -3.66408927007639       -2.93941705495184        2.28810352250846
C           -5.05217419334743       -2.65747119903336        2.32817522644087
C           -5.56922279008030       -1.64170975443423        1.56002089098820
C           -4.73814411411561       -0.89580375539837        0.72809643621855
O           -5.27295765631662        0.11556925583983        0.01649091318062
C           -4.48216941099584        0.84563491749939       -0.79380556182404
C           -5.05772989836344        1.88934178827592       -1.51887688680837
C           -4.29580758285053        2.63647516432595       -2.38290110080941
C           -2.92523516379617        2.33324607379960       -2.56064591130076
C           -2.33979714692305        1.30627504912750       -1.86436602895796
C           -3.07859696078803        0.54849840391648       -0.94551048347592
C           -0.85339863194187       -2.07635509588274       -0.98033825917860
C            0.47222924881885       -2.38640192710507       -1.14884410147703
C            1.47403010359070       -1.50190210254082       -0.73819149126845
H            5.79475063241353       -2.01558004385015       -0.30521573470765
H            7.26003387193634       -0.45334761059877        0.99430856245043
H            6.26522696396600        1.63549125780098        1.88371944519304
H            3.90731564660843        2.12804981795911        1.55613766797633
H            1.37249843032233        1.33474936147719        2.77241011423664
H            0.58713743462765        3.57760432250552        3.45835669299126
H            0.45438082751092        5.39682869282563        1.79702711737591
H            1.10667580713200        4.97828250910106       -0.54528578832624
H            1.89723429418685        2.73337068667761       -1.22353565746492
H           -0.48544689750279        0.96394684735951        0.49384047418117
H           -1.77266313615176       -2.44620762990245        1.44208919996637
H           -3.26504532564702       -3.72125064956212        2.91416825649905
H           -5.69607232112622       -3.23479934387457        2.97096538716132
H           -6.61855474260365       -1.39207303347208        1.58549677816294
H           -6.11005871910490        2.08196017804071       -1.37985899654605
H           -4.74086840802334        3.44500684556286       -2.93940100116563
H           -2.34014515904365        2.91024088934327       -3.25828553335966
H           -1.30032377135409        1.06708671935016       -2.02109609706084
H           -1.63197474853553       -2.74916290993879       -1.30244568943040
H            0.78782684095745       -3.31207296425290       -1.60328471886674
