56
 energy: -95.790454136302 gnorm: 0.000067892980 xtb: 6.7.1 (edcfbbe)
O            3.45849157348755        3.31621305275669       -0.57449490818995
S            3.18751278211842        1.95901575404985       -0.99770731456701
O            3.46755904854085        1.67002806352895       -2.39180958285387
C            4.08873520984432        0.80427193677154        0.00245388583924
C            5.42960087752943        1.06042883263733        0.22678553564040
C            6.21224143998939        0.14419381756220        0.90117260256978
C            5.62948977675038       -1.04193578759581        1.32853548223404
C            4.29096002804857       -1.29434507791865        1.11501713618669
C            3.47313873951617       -0.36259636656260        0.45400698395026
N            2.12136556541038       -0.61797504044075        0.29564026738975
C            1.64669646356749       -1.93361212694927        0.62409197505416
C            1.53858433440522       -2.87804346946331       -0.38662095268776
C            1.06168731982300       -4.14450255012556       -0.09239497708578
C            0.69833519900498       -4.46583020259693        1.20494753000363
C            0.81124237968607       -3.52139766629477        2.21292828906424
C            1.28378923890712       -2.25190788342136        1.92684721156047
C            1.17603398285201        0.30017426855958       -0.11792162712959
C           -0.18715202266780        0.00657776605145        0.03400905326612
C           -1.16988645431139        0.89992614189335       -0.36521563127941
N           -2.52433077174650        0.54635780617200       -0.21662935230187
C           -3.04172162553982       -0.58870685687007       -0.85369793142035
C           -2.27684685330244       -1.38832755004375       -1.69447854728466
C           -2.82190287009881       -2.50741792952079       -2.30560049025100
C           -4.14534718735835       -2.84126962612679       -2.09950496431861
C           -4.93385608306585       -2.03245758101385       -1.29475976511146
C           -4.39442147444635       -0.91377112692850       -0.68571231631926
O           -5.25293496124131       -0.14392145981412        0.06279124148600
C           -4.72775372293882        0.95957028665597        0.69232955844467
C           -5.59526632516000        1.70518976402422        1.46987544214035
C           -5.13515032460937        2.81251009851491        2.16705560256626
C           -3.79832729402025        3.15011550184789        2.09812971869135
C           -2.92560013214211        2.40582823252713        1.31851378497285
C           -3.37774436651366        1.31775474058793        0.58165196171739
C           -0.81923217490655        2.13881610804620       -0.90840319732436
C            0.51758626554580        2.44493448035725       -1.04718012182693
C            1.49579713966634        1.54222920692758       -0.66863084661647
H            5.82826771021688        1.99074340034646       -0.14800363762907
H            7.25702964414649        0.34162198460903        1.07844849612419
H            6.22764612261926       -1.78024671069575        1.84038753453056
H            3.86636176394996       -2.22233271905410        1.46168148821114
H            1.82631134899188       -2.61392174436603       -1.39337679488445
H            0.97454606060472       -4.87866183722111       -0.87854073530478
H            0.32547171136620       -5.45311549542056        1.43104245945084
H            0.52856876326841       -3.77082695006154        3.22435784844463
H            1.37227485890368       -1.50620915640391        2.70271430938836
H           -0.49124074388750       -0.93109722564412        0.47082984841260
H           -1.24812906909371       -1.12866400064082       -1.88462494477143
H           -2.19966903034722       -3.11059882936277       -2.94844999959272
H           -4.57406956458102       -3.71351612237356       -2.56702230150581
H           -5.97809653560443       -2.24771823060433       -1.13103371703150
H           -6.62821528359318        1.39822226782070        1.51928733445617
H           -5.81996712842965        3.39151647469544        2.76626577759916
H           -3.41884479142878        3.99466743468082        2.65247835755374
H           -1.88128116070403        2.67269289367781        1.28756366516847
H           -1.58330408012737        2.83117767847279       -1.22316511045605
H            0.84144744201755        3.38470440577813       -1.46661561807060
