  56
        -95.65211624
 O          3.4645898607       -1.5073683054       -2.4250875957
 S          3.1802831279       -1.9228906664       -1.0673646401
 O          3.4576296162       -3.3045381620       -0.7552126484
 C          4.0764172869       -0.8396631842        0.0276608526
 C          5.4036033010       -1.1286607845        0.2795145751
 C          6.1887650156       -0.2462371849        0.9984212175
 C          5.6242060882        0.9442937337        1.4319297308
 C          4.2965659088        1.2311459716        1.1918679258
 C          3.4749347064        0.3270997463        0.4988140997
 N          2.1307925624        0.6042116542        0.3195406352
 C          1.6598784927        1.9222157732        0.6150881333
 C          1.3818117216        2.3073814565        1.9214643097
 C          0.9011251294        3.5810108563        2.1717310514
 C          0.6910964190        4.4640369037        1.1257187124
 C          0.9650860209        4.0764236429       -0.1760302938
 C          1.4505260183        2.8063456034       -0.4337843181
 C          1.1755101284       -0.3038325875       -0.1010617872
 C         -0.1748387153       -0.0092309589        0.0810451504
 C         -1.1658726963       -0.8940072270       -0.3435040062
 N         -2.5243641721       -0.5296436155       -0.1779741766
 C         -3.3444286507       -1.2902567063        0.6140303365
 C         -2.8924362923       -2.3880491590        1.3635236212
 C         -3.7632555245       -3.1324546177        2.1130472408
 C         -5.1426848427       -2.8071874599        2.1569093336
 C         -5.6112046049       -1.7142493521        1.4703922117
 C         -4.7435869633       -0.9344130756        0.7094099911
 O         -5.2298222298        0.1569678641        0.0903935823
 C         -4.4053964907        0.9235445041       -0.6471068769
 C         -4.9300110064        2.0539365592       -1.2715865024
 C         -4.1355744398        2.8403202025       -2.0674875218
 C         -2.7808610953        2.4863069427       -2.2834303107
 C         -2.2431451115        1.3786557507       -1.6825708438
 C         -3.0120874321        0.5803164886       -0.8233663000
 C         -0.8289110995       -2.1188716925       -0.9341825175
 C          0.5005430614       -2.4249399412       -1.0959533881
 C          1.4951769036       -1.5356751880       -0.6936002742
 H          5.7964252161       -2.0539595736       -0.1112683835
 H          7.2240626581       -0.4703570124        1.1983508308
 H          6.2267235869        1.6623703215        1.9674740227
 H          3.8872916789        2.1664593971        1.5387074343
 H          1.5427876638        1.6077030292        2.7283212209
 H          0.6881883505        3.8820308217        3.1863496078
 H          0.3126564461        5.4547454715        1.3248971692
 H          0.8015808081        4.7630803702       -0.9921305958
 H          1.6692009322        2.4890348729       -1.4425233128
 H         -0.4766838907        0.9103731037        0.5562462663
 H         -1.8427069543       -2.6354615546        1.3434289671
 H         -3.4000603124       -3.9730039212        2.6813271742
 H         -5.8148441457       -3.4117939090        2.7426780779
 H         -6.6503532923       -1.4270563534        1.5062238426
 H         -5.9707726848        2.2825736622       -1.1086260718
 H         -4.5420713673        3.7145328465       -2.5487542843
 H         -2.1728545066        3.0897349878       -2.9374504254
 H         -1.2174598730        1.1064973459       -1.8722460055
 H         -1.6047305957       -2.7915974780       -1.2635519138
 H          0.8161027986       -3.3530491721       -1.5436499745
