66
 energy: -109.193673837659 gnorm: 0.000191951231 xtb: 6.7.1 (edcfbbe)
Br          -1.25935620475599        2.63843464286386       -0.93502030364598
C           -0.56677795806429        0.90601743201443       -0.48773047629084
C            0.78190476463766        0.77590210943404       -0.45316615575301
C            1.42718756566732       -0.45785385698722       -0.13304082156927
C            2.81418301571483       -0.60832779444125       -0.08858137023087
C            3.76428242189529        0.37212634105644       -0.33354227275426
C            5.16664388819226        0.19560303181910       -0.28243004239207
C            5.80079612564358       -1.02888261318925        0.03444284296912
C            7.16741221106827       -1.13552631461254        0.06653604461125
C            7.97616234851514       -0.02613428377188       -0.20852053667838
N            9.36433214746093       -0.15025977088323       -0.18151375527439
C           10.08766655662465       -1.21318515126320       -0.65972413977553
N           11.36976062994218       -1.06676787793213       -0.57229845814426
C           11.55822851268547        0.16158035350665        0.01801312298564
C           12.73304136630162        0.81241445493129        0.37373950600222
C           12.62268916471854        2.04527007938773        0.98495215978102
C           11.37861427334637        2.61655092500420        1.25595880864588
C           10.19868550805335        1.98681174549037        0.90901230278458
C           10.30048489010792        0.76133204388493        0.26797398683838
C            7.37279103105790        1.19422873632998       -0.53468698107405
C            6.00660280216761        1.29871244475938       -0.56917350267944
C            0.52330284156298       -1.53634012284759        0.14287262264151
Br           1.21559159005524       -3.26918179515146        0.59043891705281
C           -0.82533322004482       -1.40634889454184        0.10732450834212
C           -1.47068786022527       -0.17223475518579       -0.21115044839676
C           -2.85788392069671       -0.02150611956662       -0.25139213768539
C           -3.80624967954053       -1.00478607795628       -0.01118931269664
C           -5.20912585064747       -0.82970728977021       -0.05267868114837
C           -5.84724888146266        0.39706131781749       -0.35102042380966
C           -7.21444816408662        0.50383032982392       -0.36906923295473
C           -8.01906927623848       -0.60732121710160       -0.09186202970291
N           -9.40922910008386       -0.50592551341638       -0.11795597541108
C          -10.27513733458784       -1.42930010027242       -0.64607537023414
N          -11.52026295313376       -1.08355257493160       -0.59080865671950
C          -11.53174041205644        0.14464958381156        0.02882291432639
C          -12.60040585814870        0.96294465172139        0.37320223395949
C          -12.31662524719268        2.14687668179115        1.02395388087191
C          -11.00694054742596        2.50943845385680        1.34166448254799
C           -9.93017105220818        1.71084911887983        1.00700701067004
C          -10.20382343201362        0.53206025665464        0.32988201500244
C           -7.41147533268142       -1.83696785037804        0.19059289130674
C           -6.04529031236554       -1.94115694006882        0.21299721530522
H            1.40005052416393        1.63061270941676       -0.67458850286997
H            3.17495112637560       -1.59419210623535        0.16528288128623
H            3.43284215383596        1.36875993621709       -0.58810319217528
H            5.20817454518972       -1.89957612172946        0.26437896545629
H            7.63019607734759       -2.07619860537987        0.32643285018763
H            9.61177030010885       -2.06948485739591       -1.09801671690119
H           13.69045409589496        0.35508014925792        0.18099091162943
H           13.51687798477253        2.57799163129186        1.27265058798891
H           11.33704726822098        3.57426712572617        1.75296636705187
H            9.24270214065327        2.42917326067119        1.14283705362625
H            7.99078817606063        2.04222980941532       -0.78681478280866
H            5.55348753886509        2.24334789780290       -0.83233403684343
H           -1.44328701567922       -2.26126780944779        0.32835808583725
H           -3.21984234399472        0.96572918526984       -0.49819258965289
H           -3.47270415103225       -2.00408227886872        0.22961773493853
H           -5.25720423125929        1.26960423446950       -0.58075937734530
H           -7.67989116100801        1.44292096581828       -0.62674240752223
H           -9.92657172226658       -2.34008134111730       -1.09420267622639
H          -13.61127551444768        0.66641173698667        0.14268853228108
H          -13.12471734540209        2.80553138865462        1.30544396337875
H          -10.83093304812336        3.43646891356395        1.86659935637091
H           -8.92396943286213        1.99195776422784        1.27671393799668
H           -8.02745796501286       -2.69611479746363        0.41139412333308
H           -5.58916172300782       -2.89235211753368        0.44525125719434
