66
 energy: -109.258032922711 gnorm: 0.000065095018 xtb: 6.7.1 (edcfbbe)
Br          -1.28690418171985        2.74342311974714       -0.52475686474597
C           -0.58998405947772        0.96161833392354       -0.38304186979004
C            0.78021420628443        0.82955745489060       -0.40150192593198
C            1.40409747848824       -0.41911618164580       -0.30013787331498
C            2.84086048248359       -0.56874501822558       -0.34411904786134
C            3.73932874421599        0.41380769406797       -0.16773265142125
C            5.17980811794526        0.27291194527475       -0.22269857598231
C            5.82852886595939       -0.93552943822891       -0.49966710571598
C            7.20395722831191       -1.01045638599152       -0.54154859386340
C            7.97835397282480        0.12516917134127       -0.31087445151145
N            9.37524637807410        0.04195947022572       -0.36918336378034
C           10.10348529931046       -0.65006028505985       -1.29902150417549
N           11.38581171613578       -0.54302699178042       -1.16039147913850
C           11.56598853694142        0.26031358872627       -0.05867715191271
C           12.73710290904387        0.68863291805524        0.55601759888936
C           12.61832029270296        1.48552413077402        1.67540210606104
C           11.36981597069656        1.84139559202270        2.18951744297503
C           10.19446933257752        1.42671222381298        1.59502332610683
C           10.30450381895506        0.64615792867858        0.45419671427568
C            7.34964360982921        1.33881512290488       -0.04470069669886
C            5.97334360201986        1.40381815673756        0.00239896189265
C            0.54227608533027       -1.52046179256107       -0.18315618161541
Br           1.23770553285387       -3.30245322850468       -0.03150979543516
C           -0.82784846951331       -1.38795904053338       -0.16068696456230
C           -1.45137202914482       -0.13889637482910       -0.25813307098656
C           -2.88968349519682        0.00395915519052       -0.26569458337701
C           -3.77150072162889       -0.92232723098852        0.14401539327407
C           -5.21414659504982       -0.79401006097386        0.12331205987010
C           -5.88474222765494        0.28078319910079       -0.47029900132274
C           -7.26158791891753        0.34773649305976       -0.47093670757227
C           -8.01370385948813       -0.65769937746910        0.13292358935097
N           -9.41314295767221       -0.60032833890774        0.12820202146438
C          -10.26213508453500       -1.64375338630402       -0.12446454897416
N          -11.51689767904480       -1.32682888514264       -0.10885091675786
C          -11.54839005058627        0.01609140574223        0.18636137878208
C          -12.63100001659880        0.87315128769137        0.34826890085776
C          -12.36428300801562        2.18790189791213        0.66845984426022
C          -11.05698593262031        2.64761650821613        0.84031175947533
C           -9.96742199203073        1.81408598911048        0.68267987745074
C          -10.22549475577692        0.49663818192790        0.33551708585613
C           -7.36308343372245       -1.73887732891086        0.72269205111400
C           -5.98624898942848       -1.80289277768988        0.71108034505326
H            1.38990913329064        1.71129420295868       -0.51603365088506
H            3.18862028603806       -1.57601616623260       -0.52015743118416
H            3.39868634199975        1.41718709106881        0.05083929447057
H            5.25675141108112       -1.83190968890790       -0.67898671487437
H            7.68867988054212       -1.95459238643791       -0.74150856032570
H            9.63248242859786       -1.20496267321351       -2.08801265359318
H           13.69796814029443        0.39504615434860        0.16383784448004
H           13.50890453313514        1.83647969902293        2.17554756297928
H           11.32319691099684        2.45386984963153        3.07780853182711
H            9.23493280110195        1.69062295485039        2.01264191847635
H            7.94234904438409        2.22841175919082        0.10352230380542
H            5.49870878343014        2.35235153194366        0.20812048655786
H           -1.43902241947148       -2.27300914967383       -0.08584509008323
H           -3.25229950688995        0.95758791598100       -0.62056405842436
H           -3.41314691164845       -1.85707060613915        0.55441151558928
H           -5.32865278955324        1.06896138434220       -0.95235516884256
H           -7.76404734848050        1.16893613470139       -0.95888030602808
H           -9.89704533927840       -2.62892395968690       -0.34468370663767
H          -13.63886402859897        0.50743438082655        0.23102449740519
H          -13.18291496156490        2.87997406496920        0.80029609408044
H          -10.89478954602043        3.68148038930641        1.10699923821086
H           -8.96186991234781        2.17472252913799        0.83658311607641
H           -7.94113452981540       -2.51894149366877        1.19553764077144
H           -5.49436189026427       -2.64566150722128        1.17472141659243
