66
 energy: -109.258067677668 gnorm: 0.000172235054 xtb: 6.7.1 (edcfbbe)
Br          -1.29748493602146        2.27427041691507        1.48169999642571
C           -0.60370451795825        1.02290871971950        0.20412036515836
C            0.76613442429541        0.95598185327850        0.08207173736445
C            1.38486992071195        0.07694919897796       -0.81381660920491
C            2.82173365574708        0.01595975664718       -0.96121397863422
C            3.71849333722993        0.47058219363680       -0.07130333236337
C            5.15935152290244        0.42059057393988       -0.21250507944195
C            5.80507410345962        0.02977471741413       -1.39044528346473
C            7.18077530636162        0.00445473610426       -1.47157921958763
C            7.95653884405914        0.37213724865044       -0.37397536360582
N            9.35403590431909        0.36006535328614       -0.46906493793998
C           10.09481711414729        0.81339897768867       -1.52683883660968
N           11.37520755199833        0.73512581733122       -1.35415779917095
C           11.54001276798418        0.18085351130365       -0.10625499403495
C           12.70188652628960       -0.14659650278281        0.58351598504472
C           12.56635794463808       -0.71863970891225        1.83116002404215
C           11.31049291003544       -0.97768481322800        2.38400497554906
C           10.14413694015353       -0.65933514137705        1.71703393894633
C           10.27140865657722       -0.06021010891229        0.47299194317554
C            7.33078925988916        0.77496785166119        0.80298374336553
C            5.95433749899063        0.79558215144108        0.87659174951879
C            0.52097992269300       -0.71909634152745       -1.58061706979710
Br           1.21392382654533       -1.97107101122773       -2.85866363526858
C           -0.84863646122325       -0.65663419050150       -1.45391427477940
C           -1.46700327606417        0.21527263566781       -0.55098573129177
C           -2.90521072621620        0.29711869638875       -0.42634135965194
C           -3.77660514510488       -0.64179322990235       -0.82862799572144
C           -5.21881361327972       -0.57184130156867       -0.71273635609575
C           -5.90497438544523        0.58194163710260       -0.31926762487485
C           -7.28053244563826        0.59575466126161       -0.22961796882844
C           -8.01467059749329       -0.55156427853058       -0.52266305327129
N           -9.41273043860764       -0.54342165373433       -0.43859334309891
C          -10.27800525507548       -1.09938435160226       -1.34163833262905
N          -11.52902391513719       -0.92811688445904       -1.05740789591499
C          -11.53963742753729       -0.22172716335184        0.12259356335123
C          -12.60932465052879        0.21728664159001        0.89447590263847
C          -12.32146354604387        0.89331115502244        2.06165700316736
C          -11.00531177542120        1.12212870659499        2.46820618794197
C           -9.92840638677557        0.69619540691602        1.71615413016292
C          -10.20879034336489        0.03657599583866        0.52906803413130
C           -7.34845961988805       -1.70658271480555       -0.92551504626386
C           -5.97341124703891       -1.70936679740466       -1.02197425710947
H            1.37942657407621        1.61150990488348        0.67937427844867
H            3.16932510030733       -0.46537290753729       -1.86365339229279
H            3.37583840427218        0.89725550556899        0.86210891141583
H            5.23000068005114       -0.25660493419756       -2.25644032672951
H            7.66448515776595       -0.31049233816055       -2.38436788871167
H            9.63397137944744        1.22366863131211       -2.40531159027940
H           13.66876872486408        0.03974580595789        0.14338961150768
H           13.44946573768735       -0.98386531448550        2.39353733250534
H           11.25068637729582       -1.44242268743382        3.35704562802542
H            9.17819816328715       -0.88151414715480        2.14424503166187
H            7.92685048603582        1.09064647646762        1.64548788568346
H            5.48101128216421        1.11286000595614        1.79449418971082
H           -1.46327459962673       -1.28187322570299       -2.08153668943735
H           -3.27383813906511        1.18850532710121        0.05994227687899
H           -3.40722587782851       -1.56361942328544       -1.25820531042871
H           -5.36234715306409        1.48667692333161       -0.09579648893772
H           -7.79631335306473        1.50230751954744        0.04789136544938
H           -9.92868850853219       -1.60543301059184       -2.22155719198051
H          -13.62332559409484        0.02298697793431        0.58242903788707
H          -13.12969373897340        1.24777911465679        2.68426116447553
H          -10.82589126232587        1.64235558135065        3.39742573035591
H           -8.91512486533845        0.86113170061970        2.04925879617104
H           -7.91269415277301       -2.59944556902372       -1.15064152232429
H           -5.46876905172817       -2.61290333768983       -1.33199274037954
