  66
       -109.20567753
 Br        -1.2955728522        2.6876610102       -0.7027093214
 C         -0.5932757907        0.9276304185       -0.4510450480
 C          0.7773133321        0.8015644524       -0.4642810627
 C          1.4074867845       -0.4347612159       -0.2867888759
 C          2.8435498368       -0.5810979584       -0.3204097637
 C          3.7384245193        0.4148758665       -0.2153895206
 C          5.1778475515        0.2731892230       -0.2573008866
 C          5.8264164279       -0.9392162619       -0.5166389779
 C          7.2011697899       -1.0172917015       -0.5447260963
 C          7.9771209978        0.1183846810       -0.3159573329
 N          9.3699704457        0.0319640673       -0.3587552858
 C         10.1085854501       -0.6791354296       -1.2708871753
 N         11.3862527256       -0.5624989020       -1.1246626564
 C         11.5577591150        0.2630720935       -0.0391413612
 C         12.7235185636        0.7047458970        0.5745638259
 C         12.5958936813        1.5198645827        1.6794815468
 C         11.3440945802        1.8811243865        2.1798209955
 C         10.1733075719        1.4545763097        1.5847176281
 C         10.2926280653        0.6563457952        0.4578919689
 C          7.3471689935        1.3363113617       -0.0698809572
 C          5.9713830475        1.4053343327       -0.0398169338
 C          0.5517721893       -1.5316204016       -0.1018995932
 Br         1.2557397006       -3.2906865544        0.1531738215
 C         -0.8186425405       -1.4050223393       -0.0851852682
 C         -1.4489344417       -0.1676114383       -0.2564218498
 C         -2.8856656709       -0.0260708558       -0.2622191391
 C         -3.7709548754       -0.9447050666        0.1576472294
 C         -5.2113201901       -0.8074214529        0.1386288263
 C         -5.8746028597        0.2833468142       -0.4337230385
 C         -7.2500892476        0.3592622697       -0.4340869072
 C         -8.0112942033       -0.6532961525        0.1475773445
 N         -9.4059745207       -0.5896207528        0.1384366261
 C        -10.2605005178       -1.6315196866       -0.1214057625
 N        -11.5099424029       -1.3055484347       -0.1200945253
 C        -11.5386595717        0.0372983378        0.1723644289
 C        -12.6192824242        0.8976306957        0.3230045205
 C        -12.3512098299        2.2113292973        0.6456664919
 C        -11.0447353416        2.6657118666        0.8312766376
 C         -9.9564988419        1.8281761032        0.6849216300
 C        -10.2155863847        0.5124200697        0.3344831163
 C         -7.3666139760       -1.7497946460        0.7168240752
 C         -5.9910084055       -1.8215134402        0.7070407591
 H          1.3813169931        1.6782481685       -0.6349108877
 H          3.1968172804       -1.5968149919       -0.4205614605
 H          3.3940027944        1.4298208020       -0.0639315332
 H          5.2528541393       -1.8347603833       -0.6961584066
 H          7.6853124911       -1.9642607752       -0.7318166838
 H          9.6425724827       -1.2493724271       -2.0514685398
 H         13.6864602390        0.4060513774        0.1936004716
 H         13.4816920485        1.8812191527        2.1798903757
 H         11.2900087101        2.5071273896        3.0578425464
 H          9.2105291214        1.7217046669        1.9934433378
 H          7.9400315689        2.2265123366        0.0747837756
 H          5.4952427362        2.3570563609        0.1486725617
 H         -1.4233498850       -2.2877380469        0.0477811951
 H         -3.2489278725        0.9224985311       -0.6285613451
 H         -3.4172930457       -1.8799714167        0.5717094898
 H         -5.3126044769        1.0777162550       -0.8989854632
 H         -7.7454832417        1.1928637539       -0.9079476695
 H         -9.8972793025       -2.6178839392       -0.3377885616
 H        -13.6262499558        0.5346160262        0.1970462204
 H        -13.1679541558        2.9063128930        0.7701699856
 H        -10.8807214904        3.6983141526        1.1006580455
 H         -8.9516573557        2.1857330646        0.8521774150
 H         -7.9494598514       -2.5349988709        1.1749267881
 H         -5.5036432976       -2.6757618655        1.1548160197
