  66
  -95.8555116766000       0.476848210394595      !
 C          1.9262635148       -3.2042734295        3.4658693588
 C          0.6319409925       -2.8452001217        3.1244302565
 C          0.4168286914       -1.8625173931        2.1777546961
 C          1.4953247157       -1.2327234819        1.5604311626
 P          1.1223213293        0.0366235031        0.3360463211
 C          2.7017459878        0.3962352798       -0.5074079173
 C          3.1138148454        1.7145560355       -0.6831845689
 C          4.2450219469        1.9836294427       -1.4301060393
 C          4.9506997094        0.9501011174       -2.0268088376
 C          4.5175627300       -0.3609713068       -1.8844487122
 C          3.3866589511       -0.6398253355       -1.1444743916
 C          0.6264018526        1.5002822846        1.2381502736
 C          1.1043090454        1.6789801220        2.5401778873
 C          0.8267565757        2.8260424803        3.2435418182
 C          0.0788377210        3.8383987164        2.6326089664
 C         -0.3803386375        3.6828269564        1.3461806361
 C         -0.1320444839        2.5221598406        0.5993749597
 C         -0.6678845712        2.3764432342       -0.7351642699
 C         -0.8585864001        3.5011442410       -1.5507466109
 C         -1.3791643281        3.4064222680       -2.8184279653
 C         -1.7696910289        2.1607898695       -3.3260819830
 C         -1.6195707610        1.0420071401       -2.5484168904
 C         -1.0161150069        1.1069301336       -1.2838227659
 P         -1.1156628045       -0.3528700219       -0.2404378841
 C         -2.8242544265       -0.4437099986        0.4096575663
 C         -3.8984458904       -0.7969243403       -0.4145427083
 C         -5.1867040139       -0.6720602360        0.0591939652
 C         -5.4267399356       -0.1829307715        1.3374879229
 C         -4.3612631855        0.1958893831        2.1449793721
 C         -3.0680428048        0.0798089493        1.6822591377
 C         -0.9032875114       -1.7718624725       -1.3218531550
 C         -1.5439105698       -2.9837120935       -1.0636481062
 C         -1.2108561183       -4.1081021650       -1.7915094096
 C         -0.2141210948       -4.0475265846       -2.7566267741
 C          0.4548955575       -2.8535558800       -2.9876631773
 C          0.1253062692       -1.7242683062       -2.2669092526
 C          2.7944498188       -1.5990177289        1.9017695157
 C          3.0031798750       -2.5788621177        2.8547353043
 H          2.0970279351       -3.9692936557        4.2083599221
 H         -0.2087982923       -3.3303449337        3.5981720687
 H         -0.5921476064       -1.5775073571        1.8980025081
 H          2.5558653437        2.5140942721       -0.2163755941
 H          4.5765647537        3.0045350247       -1.5508637635
 H          5.8317055072        1.1657768321       -2.6125449953
 H          5.0602137372       -1.1642428887       -2.3614453414
 H          3.0261677039       -1.6554552054       -1.0431567510
 H          1.6928109645        0.8904720469        2.9923681844
 H          1.1839478062        2.9483067517        4.2549687467
 H         -0.1464266030        4.7420719518        3.1795632350
 H         -0.9828372978        4.4647962573        0.9080326387
 H         -0.5581617058        4.4709083974       -1.1806393197
 H         -1.4928988658        4.2927221893       -3.4250593225
 H         -2.1867420269        2.0868093515       -4.3196032692
 H         -1.9300797933        0.0737972192       -2.9220024147
 H         -3.7118639238       -1.1732390184       -1.4101974276
 H         -6.0164363394       -0.9553622814       -0.5728860030
 H         -6.4398617729       -0.0881241723        1.6976344227
 H         -4.5462991097        0.5865286563        3.1352341688
 H         -2.2301202292        0.3822417721        2.2988109344
 H         -2.3077258876       -3.0307890014       -0.2991878488
 H         -1.7216570033       -5.0412061071       -1.6028174070
 H          0.0474725076       -4.9314378932       -3.3187161569
 H          1.2387698721       -2.8082339802       -3.7303325890
 H          0.6363888379       -0.7851123962       -2.4428238889
 H          3.6356606321       -1.1071089611        1.4344245312
 H          4.0119907595       -2.8542053185        3.1252197048
  66
  -95.8548024808000       0.225141903557008      !
 C          1.8309455273       -3.3589232690        3.2386174371
 C          0.7398020224       -2.5121788598        3.3803752511
 C          0.5810944124       -1.4387311156        2.5288332057
 C          1.5367582513       -1.1829015406        1.5409335223
 P          1.1540692512        0.0634708643        0.3149156255
 C          2.7187391733        0.5499377740       -0.4907598592
 C          3.8757115426        0.7654700524        0.2674790786
 C          4.9790838886        1.3389389329       -0.3257030044
 C          4.9433424446        1.7287768557       -1.6596922510
 C          3.7841223967        1.5460734102       -2.4027376799
 C          2.6732358464        0.9710645964       -1.8231576317
 C          0.5507493939        1.5224880961        1.1693178621
 C          1.0655373942        1.8393510715        2.4331306694
 C          0.7946021797        3.0473173874        3.0240123466
 C          0.0566586790        4.0079636035        2.3217160728
 C         -0.3890379775        3.7426616551        1.0483000553
 C         -0.1584642101        2.5101010676        0.4256225339
 C         -0.6235299765        2.2544159579       -0.9201938119
 C         -0.6945831025        3.2905875427       -1.8603249711
 C         -1.0758994157        3.0698199385       -3.1634193597
 C         -1.4215198483        1.7832596858       -3.5895484261
 C         -1.3883415808        0.7449498933       -2.6894056871
 C         -0.9727200742        0.9488979943       -1.3700067482
 P         -1.0873819859       -0.4145197460       -0.2054370550
 C         -2.8078369313       -0.3977327473        0.4427129555
 C         -3.6836916966        0.6259331660        0.0972681608
 C         -4.9500096713        0.6582811701        0.6513903413
 C         -5.3353128066       -0.3043888147        1.5709187993
 C         -4.4457713222       -1.2994298242        1.9497188820
 C         -3.1784601940       -1.3384672950        1.4022597621
 C         -0.9622387140       -1.9369256519       -1.1624954626
 C         -1.9938425660       -2.8683244710       -1.2543876970
 C         -1.7940654533       -4.0507733902       -1.9408516768
 C         -0.5672039073       -4.3237727733       -2.5287181677
 C          0.4642379152       -3.4022845447       -2.4343669490
 C          0.2696954656       -2.2166629217       -1.7549864266
 C          2.6074802376       -2.0623466331        1.3727612040
 C          2.7594848334       -3.1319885133        2.2306751163
 H          1.9502764329       -4.2023480443        3.9018478745
 H          0.0100506450       -2.6992057238        4.1552769732
 H         -0.2668925370       -0.7702892354        2.6235107876
 H          3.8974229630        0.4739662753        1.3080660360
 H          5.8775201018        1.4918406351        0.2552828745
 H          5.8113251496        2.1832699228       -2.1125009593
 H          3.7493196300        1.8601355494       -3.4359902012
 H          1.7632668618        0.8349058116       -2.3935527643
 H          1.6535246377        1.0943789291        2.9551239790
 H          1.1514436663        3.2616802181        4.0206696095
 H         -0.1560297706        4.9615789951        2.7819047440
 H         -0.9587897212        4.4961239414        0.5233795237
 H         -0.4054235697        4.2868084120       -1.5592534201
 H         -1.1016569077        3.8910963037       -3.8643547660
 H         -1.7181034700        1.6106916945       -4.6132971196
 H         -1.6731644459       -0.2542493916       -2.9957303040
 H         -3.3773135143        1.3744005504       -0.6195617656
 H         -5.6389554137        1.4396458513        0.3652348612
 H         -6.3249046054       -0.2729618004        2.0017278030
 H         -4.7422201991       -2.0416525635        2.6766125808
 H         -2.4725261770       -2.1062483466        1.6927117300
 H         -2.9533957584       -2.6591383377       -0.8039839787
 H         -2.6005431868       -4.7651305160       -2.0189782952
 H         -0.4163480452       -5.2526369948       -3.0578082427
 H          1.4214551127       -3.6112060660       -2.8892554427
 H          1.0742257205       -1.4936474093       -1.6714846781
 H          3.3165904635       -1.8930400557        0.5740148555
 H          3.5978164815       -3.8026241132        2.1096450148
  66
  -95.8537988792000       7.784540321573247E-002 !
 C          2.1526059067       -3.0594006984        3.5554577938
 C          0.9445776348       -3.1372600054        2.8650032298
 C          0.6501507192       -2.2121695703        1.8889031591
 C          1.5547285886       -1.1972866568        1.5809867802
 P          1.1261078143        0.0555689330        0.3737393195
 C          2.6853955559        0.4250589613       -0.5044283827
 C          2.9833964740        1.7310285708       -0.8850114363
 C          4.1383185056        1.9878385817       -1.5974289984
 C          4.9909410853        0.9490572059       -1.9444887962
 C          4.6820192655       -0.3550957761       -1.5839522008
 C          3.5257788166       -0.6238535761       -0.8802825467
 C          0.6211715148        1.5485186167        1.2137926280
 C          0.9999869818        1.7646449032        2.5428645814
 C          0.5980529176        2.8894526702        3.2187226092
 C         -0.2196181361        3.8279043252        2.5735791347
 C         -0.6137523375        3.6215993739        1.2741482667
 C         -0.2271581083        2.4864846571        0.5485072443
 C         -0.6508987625        2.3153290006       -0.8206484914
 C         -0.7684440423        3.4243600505       -1.6757137214
 C         -1.1557598515        3.2925622951       -2.9862171021
 C         -1.4694752133        2.0323410928       -3.5087344963
 C         -1.4063453790        0.9290332152       -2.6872745679
 C         -0.9768331766        1.0399336344       -1.3659210762
 P         -1.1034285196       -0.3862510123       -0.2793328925
 C         -2.7961471246       -0.3625376961        0.4265005934
 C         -3.6266199668        0.7299822617        0.1869453935
 C         -4.8718850709        0.7909833922        0.7821324902
 C         -5.2901754520       -0.2183047654        1.6361105778
 C         -4.4489100041       -1.2870483304        1.9076588907
 C         -3.1991936753       -1.3520221898        1.3236846386
 C         -0.9965565460       -1.8250454608       -1.3505492338
 C         -1.9521193274       -2.8412009785       -1.3818000223
 C         -1.7437969050       -3.9536640200       -2.1729653049
 C         -0.5866101806       -4.0737454987       -2.9303328840
 C          0.3675926495       -3.0641971412       -2.8997932156
 C          0.1689528337       -1.9500131714       -2.1134610378
 C          2.7745508159       -1.1268218786        2.2694748985
 C          3.0582475507       -2.0541217840        3.2522438939
 H          2.3834730726       -3.7840509652        4.3211728919
 H          0.2429205979       -3.9255750242        3.0953869388
 H         -0.2830774689       -2.2604476731        1.3395935864
 H          2.3136753742        2.5317325580       -0.6051623407
 H          4.3766461424        3.0011340924       -1.8862412176
 H          5.8929023103        1.1547645887       -2.5011029697
 H          5.3440362151       -1.1631968903       -1.8600092587
 H          3.2651421004       -1.6376744451       -0.6044105025
 H          1.6242168928        1.0312875411        3.0351949190
 H          0.9054742293        3.0512491474        4.2409723168
 H         -0.5515746807        4.7060078433        3.1074366973
 H         -1.2759820340        4.3346386761        0.8034167268
 H         -0.5162385070        4.4029204810       -1.2924624504
 H         -1.2162174269        4.1643375719       -3.6213730217
 H         -1.7691641712        1.9301297244       -4.5405909160
 H         -1.6851148215       -0.0461233354       -3.0662862514
 H         -3.2999630964        1.5132531919       -0.4814613234
 H         -5.5197554183        1.6315537805        0.5804138777
 H         -6.2636399364       -0.1660035351        2.0999642170
 H         -4.7656775049       -2.0664382145        2.5854993249
 H         -2.5359255589       -2.1737626679        1.5571094795
 H         -2.8615042646       -2.7462811794       -0.8060964547
 H         -2.4900808282       -4.7342886385       -2.2028534533
 H         -0.4295619266       -4.9483702673       -3.5430085354
 H          1.2670329294       -3.1517178326       -3.4918802586
 H          0.9061178567       -1.1561555519       -2.0834050738
 H          3.4864336001       -0.3520777983        2.0196657997
 H          3.9957446077       -1.9953208828        3.7865476757
  66
  -95.8536430846000       6.601379978337739E-002 !
 C          2.1515499404       -3.2219668624        3.2724568698
 C          1.1806560035       -3.4314973816        2.2988471597
 C          0.9170842300       -2.4509713204        1.3653893072
 C          1.6151243197       -1.2455983856        1.3922800713
 P          1.2350752062        0.0540517952        0.2051524164
 C          2.8828482180        0.7738961215       -0.1817052005
 C          3.0339334890        2.1482512755       -0.3410876761
 C          4.2575899884        2.6620944694       -0.7257376241
 C          5.3246088106        1.8125511811       -0.9755383028
 C          5.1646675284        0.4399381400       -0.8498042515
 C          3.9435706779       -0.0822768650       -0.4747055186
 C          0.3402481795        1.3654047799        1.0515581063
 C          0.3970610965        1.4914597976        2.4433677372
 C         -0.2871540611        2.4926045627        3.0884487421
 C         -1.0438991717        3.4053468031        2.3486387037
 C         -1.1265519192        3.2801534574        0.9798918266
 C         -0.4710670830        2.2558697960        0.2944636201
 C         -0.6700951646        2.0956483870       -1.1327713538
 C         -0.7444121440        3.2131284443       -1.9731917493
 C         -0.9978583690        3.0892897560       -3.3187431445
 C         -1.2299187834        1.8282048157       -3.8752660160
 C         -1.1958133515        0.7119401829       -3.0701004946
 C         -0.8776430555        0.8141515241       -1.7165907371
 P         -0.9370052648       -0.6005552504       -0.6163018627
 C         -2.2951630916       -0.3058909673        0.5555270574
 C         -3.3295449999        0.5551087933        0.1779072779
 C         -4.2724499172        0.9408012437        1.1101147314
 C         -4.1843154644        0.4984261145        2.4201286964
 C         -3.1428445280       -0.3406257233        2.8017220999
 C         -2.1933753840       -0.7281681422        1.8807857840
 C         -1.3688665359       -2.0361183968       -1.6124312720
 C         -2.4403083383       -2.8649316414       -1.2671113540
 C         -2.6426866596       -4.0419931741       -1.9569260001
 C         -1.7675308882       -4.4274372210       -2.9647284378
 C         -0.6723485338       -3.6296760074       -3.2756914742
 C         -0.4586673689       -2.4524728783       -2.5930139514
 C          2.6050404305       -1.0463718901        2.3606514620
 C          2.8602769339       -2.0312303250        3.2956845193
 H          2.3577490237       -3.9897890626        4.0026471623
 H          0.6361814312       -4.3640388413        2.2697543399
 H          0.1688632052       -2.6130719100        0.5969973351
 H          2.1983413593        2.8033610517       -0.1396797762
 H          4.3805645613        3.7300403507       -0.8337704650
 H          6.2784024847        2.2183298870       -1.2776044590
 H          5.9942748997       -0.2218219781       -1.0524913903
 H          3.8026203756       -1.1516562441       -0.3824027996
 H          0.9891166659        0.7888764426        3.0133761957
 H         -0.2362520439        2.5789982177        4.1637355887
 H         -1.5807052450        4.1943946988        2.8535973912
 H         -1.7521705226        3.9609093924        0.4199048526
 H         -0.5741881371        4.1927875825       -1.5489211082
 H         -1.0267434686        3.9667568670       -3.9478808879
 H         -1.4418700738        1.7316534589       -4.9294579629
 H         -1.4089930027       -0.2610654706       -3.4906087623
 H         -3.3930834424        0.8959949102       -0.8463347160
 H         -5.0780476021        1.5978186107        0.8150313102
 H         -4.9176861090        0.8122822627        3.1475457829
 H         -3.0723959920       -0.6819878361        3.8240966906
 H         -1.3680313392       -1.3611718337        2.1770174576
 H         -3.1173214795       -2.5588789301       -0.4814378338
 H         -3.4860312856       -4.6696130669       -1.7079455272
 H         -1.9284465413       -5.3536928144       -3.4948642361
 H          0.0187356719       -3.9396343809       -4.0460999371
 H          0.4034762359       -1.8321187370       -2.8050565992
 H          3.1709269108       -0.1247356639        2.3657412581
 H          3.6202298563       -1.8705869874        4.0468523793
  66
  -95.8535646041000       6.075298079170414E-002 !
 C          1.8785281199       -3.1278060742        3.5850084200
 C          0.6737361275       -3.1028644733        2.8890389609
 C          0.4665338846       -2.1630512443        1.9033004410
 C          1.4615963962       -1.2392489921        1.5868900821
 P          1.1516256773        0.0258905564        0.3472192400
 C          2.7697711256        0.3659447506       -0.4221779322
 C          3.0872349455        1.6694102697       -0.8025910748
 C          4.2910843836        1.9285792551       -1.4243560098
 C          5.1803725393        0.8939939788       -1.6860139116
 C          4.8545451588       -0.4069599066       -1.3301613801
 C          3.6493991946       -0.6788602260       -0.7157594307
 C          0.6863084811        1.5206779286        1.2195603695
 C          1.1200785600        1.7218674651        2.5300546072
 C          0.7872697289        2.8641309998        3.2196809601
 C         -0.0047208141        3.8368725613        2.5974475425
 C         -0.4424649942        3.6505321717        1.3097716454
 C         -0.1284507018        2.4957642913        0.5755892069
 C         -0.5852216175        2.3655714080       -0.7895380512
 C         -0.6018231537        3.4903608519       -1.6296791012
 C         -1.0563065940        3.4271844541       -2.9234854643
 C         -1.5315657204        2.2175241743       -3.4443593624
 C         -1.5357947168        1.0952719449       -2.6495002089
 C         -1.0800639294        1.1447388196       -1.3318901935
 P         -1.1107257990       -0.3383114015       -0.3252743417
 C         -2.7733017858       -0.4125278888        0.4216278138
 C         -3.3136134938       -1.6343484156        0.8295551984
 C         -4.5563779714       -1.6680202911        1.4282857433
 C         -5.2555065547       -0.4912195831        1.6546673881
 C         -4.7037701055        0.7270027372        1.2792890807
 C         -3.4653129421        0.7716651305        0.6730901905
 C         -1.0202480047       -1.7409952616       -1.4471175677
 C          0.2085044694       -2.3483469811       -1.7024398110
 C          0.3017567490       -3.3853143386       -2.6043656818
 C         -0.8337169374       -3.8274783452       -3.2763692551
 C         -2.0595157225       -3.2273603808       -3.0282269561
 C         -2.1633400905       -2.1947117070       -2.1179851253
 C          2.6773317982       -1.2730785439        2.2823790982
 C          2.8724703974       -2.2105139809        3.2767228263
 H          2.0392669292       -3.8604458906        4.3609816747
 H         -0.0995818598       -3.8194512153        3.1238428428
 H         -0.4717483618       -2.1298929231        1.3611124576
 H          2.3904034879        2.4678816718       -0.5914757993
 H          4.5414318212        2.9401337513       -1.7090122634
 H          6.1223535888        1.1009845159       -2.1709877941
 H          5.5440824602       -1.2123994888       -1.5382721868
 H          3.3907703071       -1.6932672536       -0.4412322917
 H          1.7296000678        0.9653286920        3.0047336174
 H          1.1309869932        3.0098522108        4.2324556959
 H         -0.2802218546        4.7299532763        3.1387394016
 H         -1.0778573640        4.3954799916        0.8514272107
 H         -0.2102198559        4.4234264235       -1.2490454781
 H         -1.0375027629        4.3087036347       -3.5473189658
 H         -1.8889994964        2.1672926647       -4.4616614502
 H         -1.8999309725        0.1571765403       -3.0453679209
 H         -2.7644845846       -2.5504093861        0.6547983980
 H         -4.9831559328       -2.6152221225        1.7251768877
 H         -6.2247210458       -0.5218674305        2.1292812824
 H         -5.2442482120        1.6439100532        1.4645346355
 H         -3.0293446693        1.7141654686        0.3739426787
 H          1.0891070123       -1.9909781627       -1.1806198799
 H          1.2567582778       -3.8534733168       -2.7926336314
 H         -0.7601660781       -4.6358845287       -3.9875631225
 H         -2.9420519856       -3.5700888535       -3.5489913951
 H         -3.1217170913       -1.7366847768       -1.9166485670
 H          3.4585720861       -0.5683779036        2.0330885389
 H          3.8087722224       -2.2294222099        3.8156640680
  66
  -95.8533422503000       4.801543412068902E-002 !
 C          1.5101527674       -3.5194190927        3.0054791773
 C          0.5472994208       -2.5463275323        3.2285137549
 C          0.4963140839       -1.4267990139        2.4219872083
 C          1.4330813468       -1.2560769847        1.4022520249
 P          1.1629000213        0.0632590152        0.2103376910
 C          2.8064743501        0.4949049060       -0.4818468031
 C          3.9722577157        0.4380167369        0.2847715404
 C          5.1488212799        0.9404764380       -0.2320113495
 C          5.1793902897        1.5089525935       -1.4983370041
 C          4.0150410971        1.5855925509       -2.2508499051
 C          2.8323362423        1.0884414642       -1.7441591586
 C          0.6652845953        1.5412107853        1.0996456238
 C          1.2747467046        1.8176913118        2.3295575322
 C          1.0520620883        3.0066410603        2.9780108373
 C          0.2513291556        3.9785723484        2.3695489471
 C         -0.3033118467        3.7445198293        1.1325895150
 C         -0.1160856512        2.5360634152        0.4495048924
 C         -0.7334436151        2.3217868344       -0.8448674759
 C         -0.9432960492        3.3975802667       -1.7171545866
 C         -1.5230531602        3.2340777407       -2.9538740670
 C         -1.9500303294        1.9688951971       -3.3700676072
 C         -1.7746428841        0.8931553389       -2.5360888365
 C         -1.1257437071        1.0336194614       -1.3031234853
 P         -1.1070313760       -0.3707921567       -0.1858614524
 C         -2.8147293923       -0.4368007448        0.4819377134
 C         -3.8647174028       -1.0322923286       -0.2200097297
 C         -5.1555549036       -0.8996045708        0.2491865575
 C         -5.4176578394       -0.1730861857        1.4028232677
 C         -4.3756747608        0.4380661422        2.0875848751
 C         -3.0813124549        0.3140637108        1.6273432820
 C         -0.8782556978       -1.8689067309       -1.1547226145
 C         -1.3994264244       -3.0827657727       -0.7115950951
 C         -1.0408765636       -4.2578669519       -1.3427282590
 C         -0.1384987758       -4.2368214833       -2.3966804971
 C          0.4162498962       -3.0352957034       -2.8116596047
 C          0.0626947278       -1.8572605547       -2.1841848974
 C          2.3721557210       -2.2554327148        1.1555351374
 C          2.4175765722       -3.3732402002        1.9657317432
 H          1.5441514782       -4.3986142889        3.6313740107
 H         -0.1711593609       -2.6687556727        4.0262321827
 H         -0.2539678434       -0.6623966803        2.5836005888
 H          3.9499998526        0.0046775623        1.2743577591
 H          6.0525018846        0.8922910614        0.3588580020
 H          6.1057500953        1.8982573014       -1.8927627525
 H          4.0335894307        2.0378271015       -3.2318402771
 H          1.9159351543        1.1544026362       -2.3170534980
 H          1.9015083894        1.0568944307        2.7787492990
 H          1.4914886837        3.1936507514        3.9466513443
 H          0.0687076186        4.9157438039        2.8742718073
 H         -0.9303073246        4.5039145401        0.6886036408
 H         -0.6096258532        4.3817741360       -1.4222042132
 H         -1.6517032176        4.0849884791       -3.6063964405
 H         -2.4144301726        1.8432041370       -4.3369308088
 H         -2.1084683092       -0.0930355432       -2.8351354734
 H         -3.6654477358       -1.5918551150       -1.1226058450
 H         -5.9678416549       -1.3651513698       -0.2907140549
 H         -6.4312820922       -0.0771999356        1.7614653434
 H         -4.5781438302        1.0127133775        2.9797592770
 H         -2.2626073098        0.7962637664        2.1466747766
 H         -2.0833449540       -3.0954431482        0.1262492545
 H         -1.4557819211       -5.1967576061       -1.0061327551
 H          0.1436340945       -5.1582808064       -2.8836936207
 H          1.1327770719       -3.0208968318       -3.6202180656
 H          0.4940019117       -0.9137045686       -2.4951162320
 H          3.0595722459       -2.1491751540        0.3273436517
 H          3.1548303418       -4.1409721400        1.7810775352
  66
  -95.8532889510000       4.538226813689405E-002 !
 C          2.1210168862       -3.1834904943        3.3528144324
 C          1.0503599057       -3.3385744086        2.4800553837
 C          0.7954230613       -2.3777582372        1.5232058495
 C          1.6025553911       -1.2475588086        1.4262378581
 P          1.2266396363        0.0353970094        0.2160692515
 C          2.8759581306        0.6885429810       -0.2601544286
 C          3.0598825623        2.0553103880       -0.4515993056
 C          4.2759348170        2.5250734610       -0.9087399673
 C          5.3023316854        1.6387885631       -1.2001044048
 C          5.1075135117        0.2738787358       -1.0432380680
 C          3.8931269860       -0.2049971838       -0.5952537143
 C          0.4122555050        1.3852160395        1.0830974114
 C          0.5680778637        1.5307345570        2.4654058953
 C         -0.0428660992        2.5588577221        3.1413710010
 C         -0.8258793083        3.4801812689        2.4404511699
 C         -0.9978268515        3.3430513706        1.0815540909
 C         -0.4102257098        2.2976625916        0.3650062276
 C         -0.6850185921        2.1452773821       -1.0492916428
 C         -0.7957977531        3.2664527936       -1.8809564560
 C         -1.1041079561        3.1479592210       -3.2153123595
 C         -1.3565750133        1.8881528239       -3.7673748330
 C         -1.2888077886        0.7697995400       -2.9689341805
 C         -0.9081163457        0.8654861221       -1.6297140353
 P         -0.9736205073       -0.5535184153       -0.5315199609
 C         -2.4215840342       -0.3254724468        0.5480052749
 C         -3.5633073241        0.2764732472        0.0108536961
 C         -4.6097208421        0.6178570979        0.8428461619
 C         -4.5203330504        0.3947457279        2.2090876043
 C         -3.3720953429       -0.1753416293        2.7466944282
 C         -2.3202996937       -0.5206507739        1.9248733586
 C         -1.2716362858       -1.9898779629       -1.5656580757
 C         -2.2923735672       -2.9017964563       -1.2802152959
 C         -2.3837192498       -4.0720876240       -2.0036920971
 C         -1.4454699710       -4.3686147247       -2.9851648949
 C         -0.4000011951       -3.4870037784       -3.2357276782
 C         -0.2988146801       -2.3140472834       -2.5209347067
 C          2.6854318812       -1.1004680973        2.2984224603
 C          2.9338363840       -2.0654100771        3.2562404939
 H          2.3210571659       -3.9357216585        4.1007879561
 H          0.4190925979       -4.2122607317        2.5476516757
 H         -0.0345241810       -2.4978026090        0.8353449935
 H          2.2549777259        2.7386140983       -0.2195814150
 H          4.4248151175        3.5868752121       -1.0418651096
 H          6.2504911396        2.0101417023       -1.5589350153
 H          5.9045919916       -0.4163595543       -1.2789080467
 H          3.7250056941       -1.2680729170       -0.4789511980
 H          1.1800823986        0.8203871365        3.0045379970
 H          0.0844494414        2.6583318328        4.2090977386
 H         -1.3102190777        4.2876265679        2.9687733387
 H         -1.6392478293        4.0352223692        0.5547283140
 H         -0.6079271925        4.2450350565       -1.4616033570
 H         -1.1594116324        4.0278751299       -3.8390350093
 H         -1.6096867556        1.7955063382       -4.8127926673
 H         -1.5153478108       -0.2030840630       -3.3840108482
 H         -3.6203911315        0.4519951628       -1.0550465771
 H         -5.4988836780        1.0695479594        0.4268422718
 H         -5.3373403861        0.6750776164        2.8565945926
 H         -3.3002235005       -0.3413051281        3.8117031118
 H         -1.4166921415       -0.9490059751        2.3374981727
 H         -3.0175421767       -2.6651385804       -0.5132724882
 H         -3.1885186672       -4.7644840463       -1.8027971796
 H         -1.5199850298       -5.2899721315       -3.5423416205
 H          0.3392162256       -3.7273508083       -3.9860922696
 H          0.5194978532       -1.6238794384       -2.6883496793
 H          3.3266929932       -0.2337437915        2.2151583648
 H          3.7683006353       -1.9446892767        3.9319013808
