  44
        -76.58250448
 O          4.4806446496       -2.1683765829        1.0328071488
 S          3.9286863104       -1.5434243914       -0.1454265519
 O          4.2997229870       -2.1255207345       -1.4123742366
 C          4.2271385640        0.2312491183       -0.1303609403
 C          5.4294097088        0.8921898032       -0.2127929653
 C          5.4236446800        2.2814112655       -0.1780118853
 C          4.2263210869        2.9702507224       -0.0611983243
 C          3.0191888140        2.2944191338        0.0226971476
 C          3.0133759256        0.9047056594       -0.0126935914
 C          1.8483906942        0.0223310919        0.0629868749
 C          0.5297934221        0.4208101002        0.1874841003
 C         -0.4929751366       -0.5360100416        0.2604504771
 N         -1.8074455648       -0.1417971379        0.3875594814
 C         -2.1953365385        1.2160016091        0.4195470337
 C         -1.7140720279        2.0859519929        1.3927222023
 C         -2.0936557032        3.4158599385        1.3869665676
 C         -2.9770020357        3.8862250536        0.4275983466
 C         -3.5079905236        3.0181493206       -0.5081981449
 C         -3.1239493053        1.6858132257       -0.5065532686
 S         -3.8329338420        0.5540250310       -1.6732049508
 C         -3.9076796664       -0.8488475078       -0.5903499272
 C         -4.9810675050       -1.7231515524       -0.6623881498
 C         -5.0537959103       -2.7928833832        0.2103887282
 C         -4.0751119728       -2.9666425562        1.1764731392
 C         -3.0062993557       -2.0918635928        1.2522496721
 C         -2.8919754065       -1.0457716673        0.3428506976
 C         -0.1541386974       -1.8919530895        0.1348920988
 C          1.1648251043       -2.2882358926        0.0086019137
 C          2.1568499212       -1.3348690179       -0.0055779156
 H          6.3478285653        0.3336382930       -0.3030957561
 H          6.3544380351        2.8237250843       -0.2426836050
 H          4.2326289247        4.0497682551       -0.0352013080
 H          2.0956398287        2.8460451370        0.1125311326
 H          0.2885745594        1.4704509390        0.2019670028
 H         -1.0365436196        1.7101994551        2.1452977878
 H         -1.7006338371        4.0850911039        2.1367996288
 H         -3.2668354862        4.9253753374        0.4195393129
 H         -4.2153409006        3.3605133019       -1.2474544543
 H         -5.7461791251       -1.5569487012       -1.4047516564
 H         -5.8830584516       -3.4801217054        0.1473015505
 H         -4.1449480115       -3.7836560693        1.8779010894
 H         -2.2496171494       -2.2137755849        2.0128893144
 H         -0.9291357500       -2.6403876286        0.1128450610
 H          1.4170125655       -3.3328638242       -0.0827337493
  44
        -76.58134327
 O          4.3995400966       -2.4102276865        0.6676861345
 S          3.9065519056       -1.5479660941       -0.3791025343
 O          4.2850528484       -1.8952319611       -1.7274599426
 C          4.2772680758        0.1767788398       -0.0282263626
 C          5.5103219834        0.7710104469        0.0954932954
 C          5.5634396865        2.1269761502        0.3944269660
 C          4.3918092979        2.8503246767        0.5552471197
 C          3.1531198787        2.2419086858        0.4261654410
 C          3.0879070675        0.8843832495        0.1330898172
 C          1.8839090782        0.0604135884        0.0108427177
 C          0.5769109360        0.4937666116        0.1601815027
 C         -0.4770972843       -0.4283082738        0.1139229621
 N         -1.7886333782       -0.0429921109        0.2985704765
 C         -2.2384288393        1.2956056562        0.2683003287
 C         -1.7480033196        2.2653806445        1.1366935668
 C         -2.1943083780        3.5724552137        1.0485556483
 C         -3.1606477829        3.9214732695        0.1191246674
 C         -3.7155508060        2.9507507057       -0.6938250097
 C         -3.2634479176        1.6431471834       -0.6120466027
 S         -4.0314027666        0.3876486348       -1.6022468356
 C         -3.9444128700       -0.9125965626       -0.3989319403
 C         -4.9784060508       -1.8281177940       -0.2762065995
 C         -4.9004579221       -2.8254461533        0.6782784140
 C         -3.8037481712       -2.8941795046        1.5240022561
 C         -2.7757817350       -1.9776846629        1.4064486542
 C         -2.8252915423       -0.9933053285        0.4246411541
 C         -0.1844881264       -1.7707236204       -0.1776779427
 C          1.1174972249       -2.1959533706       -0.3590320152
 C          2.1423404734       -1.2850978154       -0.2404470935
 H          6.4067885307        0.1847742123       -0.0324050322
 H          6.5194578187        2.6152983583        0.5045782369
 H          4.4438750144        3.9032100030        0.7894880439
 H          2.2510255919        2.8200961163        0.5573084437
 H          0.3766911055        1.5425465597        0.2960111543
 H         -1.0252795091        1.9876715541        1.8891377934
 H         -1.7910462710        4.3183193439        1.7162565577
 H         -3.5024356649        4.9420520576        0.0458185982
 H         -4.4983234320        3.1927062154       -1.3958813752
 H         -5.8302925146       -1.7530967578       -0.9338941684
 H         -5.7007249866       -3.5431053956        0.7694049268
 H         -3.7491195264       -3.6612985935        2.2808692766
 H         -1.9178052028       -2.0217599514        2.0608876285
 H         -0.9888332844       -2.4809400971       -0.2829578758
 H          1.3326876868       -3.2271669230       -0.5898003130
  44
        -76.58013857
 O          4.2480077265       -2.4912349760       -0.8412317190
 S          3.8901967334       -1.1226890836       -1.1104873656
 O          4.3909453083       -0.5464436702       -2.3313115843
 C          4.2327700332       -0.0666574917        0.3025481532
 C          5.4543657501        0.2599432769        0.8411759835
 C          5.4843677608        1.1023651272        1.9463539796
 C          4.3034258270        1.5937907634        2.4812192123
 C          3.0761777271        1.2585734198        1.9307946827
 C          3.0347157461        0.4160507575        0.8254722914
 C          1.8431560476       -0.0458903693        0.1126922160
 C          0.5213724460        0.2645670467        0.4086357581
 C         -0.4936402918       -0.2673488126       -0.3779350616
 N         -1.8418152676        0.0595451651       -0.0616482959
 C         -2.3677296145        1.2160785664       -0.6395750956
 C         -1.6196534603        1.9264573241       -1.5796451181
 C         -2.1077582508        3.0801713812       -2.1676095181
 C         -3.3674009651        3.5493676602       -1.8461356176
 C         -4.1272363840        2.8544486227       -0.9217488189
 C         -3.6333935927        1.7105837976       -0.3165101004
 S         -4.6642253956        0.9506325652        0.9061105185
 C         -3.9040041222       -0.6422527146        1.0535788765
 C         -4.6441792955       -1.6217482750        1.6949838714
 C         -4.1053576268       -2.8736677612        1.9323725419
 C         -2.8117308532       -3.1343533292        1.5225474473
 C         -2.0759421166       -2.1638437491        0.8653880878
 C         -2.6067634080       -0.9002087241        0.6032971396
 C         -0.2015350881       -1.1002707852       -1.4561445359
 C          1.1166585963       -1.4149790373       -1.7531088455
 C          2.1125803051       -0.8850278801       -0.9661114885
 H          6.3595246166       -0.1349975943        0.4072021946
 H          6.4310024541        1.3730563310        2.3881009832
 H          4.3382993701        2.2472119064        3.3400353666
 H          2.1658255151        1.6495096222        2.3587444670
 H          0.2655152337        0.9099935871        1.2346447887
 H         -0.6382644505        1.5728362375       -1.8539849806
 H         -1.4958313410        3.6039754526       -2.8850094710
 H         -3.7580892179        4.4441529316       -2.3037680165
 H         -5.1120737533        3.1983196034       -0.6446554095
 H         -5.6436713535       -1.3794877257        2.0211514253
 H         -4.6878288202       -3.6262219854        2.4393678580
 H         -2.3621471889       -4.0972634971        1.7093139784
 H         -1.0662414919       -2.3909621318        0.5607920072
 H         -1.0091558747       -1.4959310117       -2.0537022048
 H          1.3651032178       -2.0584926665       -2.5821886650
  44
        -76.58012620
 O          4.3223856468       -2.1956421151       -1.3286927101
 S          3.9347603266       -0.8118117039       -1.2392964599
 O          4.4613405714        0.0787797440       -2.2407716275
 C          4.2006486289       -0.1644567671        0.4160070814
 C          5.3939755020        0.0237173211        1.0714840218
 C          5.3641505687        0.5406494129        2.3613633691
 C          4.1531626861        0.8524496552        2.9600148642
 C          2.9547941033        0.6593305316        2.2905898275
 C          2.9734899685        0.1450989787        0.9989005359
 C          1.8202452144       -0.1227877891        0.1388777310
 C          0.4846274647        0.1001264091        0.4446761818
 C         -0.4909953420       -0.2102351160       -0.4998494945
 N         -1.8642222403        0.0224862071       -0.2162850142
 C         -2.4130699452        1.2147419624       -0.6928538167
 C         -1.5823302695        2.1854227741       -1.2546326086
 C         -2.0911419320        3.3747446632       -1.7457588097
 C         -3.4454313514        3.6394061898       -1.6704629139
 C         -4.2827436060        2.6970550851       -1.1008577471
 C         -3.7788781220        1.4969455712       -0.6264872177
 S         -4.9539037213        0.3434494872        0.0229853878
 C         -3.8924817122       -0.7723582261        0.8975276541
 C         -4.5083654810       -1.6294622378        1.7946436895
 C         -3.7806263847       -2.6002278572        2.4593896390
 C         -2.4260870823       -2.7096887766        2.2086618617
 C         -1.8043025218       -1.8427055883        1.3271348779
 C         -2.5165425313       -0.8431579232        0.6630078217
 C         -0.1412350028       -0.7350011441       -1.7397760055
 C          1.1938566647       -0.9548372850       -2.0511721522
 C          2.1479443584       -0.6472932636       -1.1105032757
 H          6.3231585279       -0.2278327574        0.5848291078
 H          6.2875283562        0.6984876684        2.8969530527
 H          4.1412652029        1.2520186472        3.9630278844
 H          2.0205656118        0.9065956915        2.7712560206
 H          0.1877819167        0.5138331706        1.3965548009
 H         -0.5203107596        2.0051217560       -1.3148760827
 H         -1.4165951945        4.0942551641       -2.1831466698
 H         -3.8499668875        4.5647902373       -2.0482390300
 H         -5.3450257655        2.8728202058       -1.0285678750
 H         -5.5724638294       -1.5337430432        1.9486501084
 H         -4.2719314401       -3.2670044008        3.1497734690
 H         -1.8391264670       -3.4723174318        2.6969763565
 H         -0.7479249070       -1.9573355417        1.1413400281
 H         -0.9170874664       -0.9615413951       -2.4550441975
 H          1.4854689861       -1.3588369863       -3.0076255604
  44
        -76.58007495
 O          4.4401634930       -0.7604993065        2.1882712309
 S          3.9213367075       -1.2094727604        0.9218881696
 O          4.2957085743       -2.5342344708        0.4989162075
 C          4.2181022704        0.0020075285       -0.3720666059
 C          5.4230554745        0.4123926547       -0.8904522938
 C          5.4169910183        1.3783207571       -1.8899594652
 C          4.2177795334        1.9069570131       -2.3420874104
 C          3.0074576661        1.4856211840       -1.8137776447
 C          3.0020876071        0.5184566246       -0.8149569016
 C          1.8329958076       -0.0427600586       -0.1374386928
 C          0.5017872672        0.2710758934       -0.3763607366
 C         -0.4919643968       -0.3544357546        0.3706356894
 N         -1.8451237747       -0.0120668727        0.1142133134
 C         -2.2923910579        1.2083456515        0.6275849500
 C         -1.4938742250        1.9165937427        1.5272924056
 C         -1.8948695491        3.1358871735        2.0437287372
 C         -3.1195066853        3.6738997989        1.6952985755
 C         -3.9373710426        2.9737433057        0.8269812554
 C         -3.5294646720        1.7622124805        0.2927830779
 S         -4.6359337029        0.9805867285       -0.8455156879
 C         -3.9868576760       -0.6670858874       -0.8695717788
 C         -4.8160822464       -1.6438990314       -1.3961352344
 C         -4.3634456267       -2.9398098334       -1.5660999453
 C         -3.0606944484       -3.2425316958       -1.2190580965
 C         -2.2371492721       -2.2740964323       -0.6722901598
 C         -2.6859086880       -0.9703007003       -0.4577380376
 C         -0.1620183995       -1.2814286771        1.3579078226
 C          1.1665354052       -1.6073012399        1.5904877146
 C          2.1384398314       -0.9874024473        0.8405260672
 H          6.3434383267       -0.0124861368       -0.5216416978
 H          6.3500604406        1.7175381770       -2.3128108271
 H          4.2245965540        2.6589035671       -3.1169076826
 H          2.0823513016        1.9077317816       -2.1752890803
 H          0.2203945650        0.9947856681       -1.1257052227
 H         -0.5414545439        1.5077425971        1.8273996668
 H         -1.2426099537        3.6575900717        2.7269270612
 H         -3.4406507470        4.6226179087        2.0946405303
 H         -4.9017087575        3.3634827087        0.5390551440
 H         -5.8166113751       -1.3647884806       -1.6892364086
 H         -5.0156823952       -3.6917300055       -1.9805070077
 H         -2.6713179635       -4.2375466760       -1.3702290717
 H         -1.2214075042       -2.5371724612       -0.4238992126
 H         -0.9473790594       -1.7386607503        1.9410042151
 H          1.4406386969       -2.3252429760        2.3472383644
  44
        -76.58005599
 O          4.2942139715       -2.4040370768       -0.9866615079
 S          3.9119979058       -1.0242432060       -1.1380293706
 O          4.4332183807       -0.3249675889       -2.2836255541
 C          4.1911398273       -0.0972967777        0.3764483466
 C          5.3886723652        0.1985974533        0.9825516607
 C          5.3677111641        0.9349927385        2.1612591520
 C          4.1615060858        1.3535215523        2.7015018224
 C          2.9589121572        1.0508800286        2.0823460465
 C          2.9687951914        0.3157737111        0.9022093654
 C          1.8092265046       -0.0941720795        0.1098009780
 C          0.4759161176        0.1815892844        0.3817315408
 C         -0.5052904484       -0.2837705077       -0.4884971833
 N         -1.8727244806        0.0065247503       -0.2180559989
 C         -2.3725138317        1.2185077477       -0.6924284726
 C         -1.5400407048        2.0707794002       -1.4201151723
 C         -1.9931442106        3.2842274015       -1.9077583122
 C         -3.2946943913        3.6866491557       -1.6774864660
 C         -4.1364867662        2.8535357657       -0.9622725529
 C         -3.6889634845        1.6343964943       -0.4796152522
 S         -4.8849269937        0.6557801311        0.3854710242
 C         -3.9081332854       -0.7101512616        0.9482158339
 C         -4.5549726434       -1.6241863354        1.7640415539
 C         -3.8934847765       -2.7408985838        2.2433187956
 C         -2.5698135704       -2.9339355789        1.8975457241
 C         -1.9183054932       -2.0194414323        1.0885529779
 C         -2.5683223701       -0.8870604456        0.5948415211
 C         -0.1684479756       -1.0216407032       -1.6187157731
 C          1.1640245528       -1.2998014067       -1.8936038130
 C          2.1257603211       -0.8322386803       -1.0293350531
 H          6.3146037890       -0.1384882963        0.5438245264
 H          6.2946642673        1.1808290991        2.6559066632
 H          4.1568136193        1.9249561386        3.6175853324
 H          2.0281559544        1.3842641150        2.5149555958
 H          0.1842490363        0.7514032133        1.2506309887
 H         -0.5199909873        1.7779362953       -1.6140549709
 H         -1.3168414462        3.9106922603       -2.4685059009
 H         -3.6569167809        4.6315440740       -2.0499971268
 H         -5.1607095332        3.1355520581       -0.7713569794
 H         -5.5899875367       -1.4461670702        2.0132000870
 H         -4.4095180383       -3.4456105307        2.8754040116
 H         -2.0300920689       -3.7970265560        2.2555598770
 H         -0.8843593915       -2.1912664724        0.8321263125
 H         -0.9506679322       -1.3711715608       -2.2751464372
 H          1.4480209442       -1.8687341059       -2.7647029725
