  44
        -76.58250448
 O          4.4806446496       -2.1683765829        1.0328071488
 S          3.9286863104       -1.5434243914       -0.1454265519
 O          4.2997229870       -2.1255207345       -1.4123742366
 C          4.2271385640        0.2312491183       -0.1303609403
 C          5.4294097088        0.8921898032       -0.2127929653
 C          5.4236446800        2.2814112655       -0.1780118853
 C          4.2263210869        2.9702507224       -0.0611983243
 C          3.0191888140        2.2944191338        0.0226971476
 C          3.0133759256        0.9047056594       -0.0126935914
 C          1.8483906942        0.0223310919        0.0629868749
 C          0.5297934221        0.4208101002        0.1874841003
 C         -0.4929751366       -0.5360100416        0.2604504771
 N         -1.8074455648       -0.1417971379        0.3875594814
 C         -2.1953365385        1.2160016091        0.4195470337
 C         -1.7140720279        2.0859519929        1.3927222023
 C         -2.0936557032        3.4158599385        1.3869665676
 C         -2.9770020357        3.8862250536        0.4275983466
 C         -3.5079905236        3.0181493206       -0.5081981449
 C         -3.1239493053        1.6858132257       -0.5065532686
 S         -3.8329338420        0.5540250310       -1.6732049508
 C         -3.9076796664       -0.8488475078       -0.5903499272
 C         -4.9810675050       -1.7231515524       -0.6623881498
 C         -5.0537959103       -2.7928833832        0.2103887282
 C         -4.0751119728       -2.9666425562        1.1764731392
 C         -3.0062993557       -2.0918635928        1.2522496721
 C         -2.8919754065       -1.0457716673        0.3428506976
 C         -0.1541386974       -1.8919530895        0.1348920988
 C          1.1648251043       -2.2882358926        0.0086019137
 C          2.1568499212       -1.3348690179       -0.0055779156
 H          6.3478285653        0.3336382930       -0.3030957561
 H          6.3544380351        2.8237250843       -0.2426836050
 H          4.2326289247        4.0497682551       -0.0352013080
 H          2.0956398287        2.8460451370        0.1125311326
 H          0.2885745594        1.4704509390        0.2019670028
 H         -1.0365436196        1.7101994551        2.1452977878
 H         -1.7006338371        4.0850911039        2.1367996288
 H         -3.2668354862        4.9253753374        0.4195393129
 H         -4.2153409006        3.3605133019       -1.2474544543
 H         -5.7461791251       -1.5569487012       -1.4047516564
 H         -5.8830584516       -3.4801217054        0.1473015505
 H         -4.1449480115       -3.7836560693        1.8779010894
 H         -2.2496171494       -2.2137755849        2.0128893144
 H         -0.9291357500       -2.6403876286        0.1128450610
 H          1.4170125655       -3.3328638242       -0.0827337493
