  69
       -112.02824811
 N        -11.8999648695        0.0391143645        0.0829013917
 C        -10.7519242443        0.0313107492        0.0629169507
 C         -9.3430309916        0.0219925602        0.0430820819
 C         -8.6513517008        0.3519438954       -1.1271873578
 C         -7.2759355369        0.3508886394       -1.1372577053
 C         -6.5433404724        0.0043926932        0.0077342559
 C         -5.0888159738       -0.0046040485       -0.0093822964
 C         -4.3733700851        1.1537493978       -0.4398939939
 C         -5.0304779433        2.3459391338       -0.7677884712
 C         -4.3432813756        3.4335638013       -1.2910210578
 C         -2.9832254005        3.3422098693       -1.5120621512
 C         -2.2960217247        2.1960423974       -1.1302152606
 C         -2.9496775919        1.1182813998       -0.5237687491
 C         -2.2336766685       -0.0214710516       -0.0367194046
 C         -0.7869462747       -0.0309859613       -0.0483485888
 C         -0.0495368154        1.0409874515        0.4856890046
 C          1.3229928129        1.0246006763        0.4959819626
 C          2.0233742871       -0.0561363783       -0.0561208645
 C          3.4559649440       -0.0875481185       -0.0623243759
 N          4.2007314326       -1.0532841537       -0.5341159025
 C          5.4829773941       -0.6513192746       -0.3238234046
 C          6.7135064989       -1.2971210113       -0.6317689848
 C          6.7438312519       -2.5509223648       -1.2494852523
 C          7.9439387584       -3.1536093919       -1.5360818694
 C          9.1313402232       -2.5043573166       -1.2059691421
 C          9.1135934808       -1.2703288198       -0.5977594566
 C          7.9094305469       -0.6204531024       -0.2875448102
 C          7.8685687016        0.6823529065        0.3554543063
 C          9.0258647286        1.3880019498        0.7131212614
 C          8.9635543768        2.6204811690        1.3222131524
 C          7.7354103139        3.2147144489        1.6070696935
 C          6.5767155826        2.5603612031        1.2742833908
 C          6.6272859458        1.3047803724        0.6533850137
 C          5.4610514903        0.5937021892        0.2921475790
 O          4.1686106431        0.9527239055        0.4583618953
 C          1.3004076462       -1.1232426908       -0.6078990765
 C         -0.0710081448       -1.1149761078       -0.5902604252
 C         -2.9536577906       -1.1527427576        0.4645295181
 C         -2.3016534440       -2.2370963078        1.0608708437
 C         -2.9953525709       -3.3741078889        1.4580635622
 C         -4.3601108628       -3.4500431328        1.2617268456
 C         -5.0438406242       -2.3554544835        0.7486501449
 C         -4.3788911510       -1.1713371693        0.4073440749
 C         -7.2511297978       -0.3335612433        1.1708299052
 C         -8.6261236368       -0.3174022041        1.1955360677
 H         -9.2061135559        0.6017868907       -2.0197986508
 H         -6.7454717203        0.5818998310       -2.0494623872
 H         -6.0943443854        2.4278929529       -0.6066327993
 H         -4.8804607699        4.3365939759       -1.5386848018
 H         -2.4453272679        4.1610259410       -1.9654968477
 H         -1.2349282415        2.1365949044       -1.3161935110
 H         -0.5802705458        1.8625200473        0.9447110133
 H          1.8750318968        1.8404096554        0.9378969853
 H          5.8021585430       -3.0200768097       -1.4886569420
 H          7.9718906766       -4.1219867402       -2.0128261879
 H         10.0778807184       -2.9745374262       -1.4295872645
 H         10.0569043797       -0.8050841753       -0.3602906239
 H          9.9979784601        0.9673764261        0.5123236444
 H          9.8774664430        3.1336220278        1.5828588360
 H          7.7003330391        4.1819054565        2.0855698279
 H          5.6097587723        2.9939945525        1.4814307227
 H          1.8496153180       -1.9404115739       -1.0477111427
 H         -0.6201679394       -1.9259891325       -1.0459136516
 H         -1.2365638243       -2.1908245899        1.2264312781
 H         -2.4586706577       -4.1979837518        1.9035377751
 H         -4.9032059826       -4.3462617080        1.5208834791
 H         -6.1111904550       -2.4253275053        0.6061970220
 H         -6.7006292038       -0.5719882162        2.0691573629
 H         -9.1614195601       -0.5607928360        2.1016664503
