69
 energy: -112.093767262866 gnorm: 0.000053648553 xtb: 6.7.1 (edcfbbe)
N          -12.00100163024717       -0.11916324530026       -0.00312523675804
C          -10.85480775545994       -0.09099814673606       -0.00238733465271
C           -9.44174933784623       -0.05695337612110       -0.00121826885160
C           -8.77330815711027        1.16800235044930        0.01462585555011
C           -7.39338617977978        1.19439820650267        0.01537371942322
C           -6.66275410066541        0.00907466449272        0.00047173043053
C           -5.18229507558184        0.04128512727724        0.00087865457065
C           -4.48904709157833        0.03789415121955        1.21718681848737
C           -5.16651669535763        0.01399547902429        2.46466949293388
C           -4.47788800913994        0.01141879424720        3.63817430912349
C           -3.06806247626644        0.03199435663465        3.63767639433338
C           -2.38086611055274        0.05404236095570        2.46355032104530
C           -3.05990237687465        0.05789932857188        1.21681081403988
C           -2.36572611971701        0.08020942297965        0.00109858439276
C           -0.88495529799582        0.08580059959635        0.00100079057483
C           -0.18129470386450       -1.11508492296693       -0.01125050427619
C            1.19854739497430       -1.11903808080516       -0.01157457272684
C            1.90006949112059        0.08644776491677        0.00058842761486
C            3.34417956979198        0.10341471893984        0.00072351835885
N            4.09491799339591        1.16727230282645        0.01275836712657
C            5.37716625427643        0.69957469192983        0.00759138460882
C            6.61465963296408        1.40235665849085        0.01583706052445
C            6.66088938567594        2.79960066893453        0.03187399324716
C            7.86835988510995        3.45276550317329        0.03969142329797
C            9.04783631804887        2.71102491287096        0.03149642381256
C            9.01449149881666        1.33611476515400        0.01568752774939
C            7.80186056539339        0.62971234089580        0.00725624622365
C            7.74437824866412       -0.82234823031230       -0.00942735817171
C            8.89347828982642       -1.62640561902689       -0.01857780918532
C            8.81584758589281       -2.99982267894269       -0.03437836148157
C            7.58047444554942       -3.64454365866158       -0.04186838509896
C            6.42986598220429       -2.89715189008499       -0.03335838906393
C            6.49650871852968       -1.49826249124568       -0.01730197207076
C            5.33836718687609       -0.68536313668091       -0.00811014469984
O            4.03982713721980       -1.06483957327796       -0.01245433667133
C            1.19730668451069        1.29231005413048        0.01292826797629
C           -0.18160129689373        1.28800666052403        0.01301261681495
C           -3.06015743858697        0.09045353798505       -1.21463491634912
C           -2.38137417081933        0.11940425991655       -2.46118242468916
C           -3.06881078721044        0.12852486251938       -3.63533729425380
C           -4.47863677355398        0.10816863958201       -3.63608128823400
C           -5.16702077996487        0.07968025720832       -2.46277757368065
C           -4.48929732191542        0.07044113868835       -1.21523911241886
C           -7.33653877295632       -1.20958531196956       -0.01514338855379
C           -8.71602723274152       -1.24890049685138       -0.01608465321093
H           -9.34166128033694        2.08644293134871        0.02612041109978
H           -6.86908813509374        2.13871692937390        0.02751745229631
H           -6.24687904630863       -0.00114414790219        2.46466151545910
H           -5.00562651537087       -0.00596395797211        4.58030948375450
H           -2.53987954498651        0.03047690395235        4.57965106515413
H           -1.30082704987619        0.07083757809302        2.45969953400748
H           -0.72724363763742       -2.04740626217426       -0.02057245338987
H            1.74249848761900       -2.05137735338506       -0.02114976399497
H            5.72529267798987        3.33698626309968        0.03780394345369
H            7.90876415396241        4.53172935631615        0.05209237803589
H           10.00017943492714        3.22109781858445        0.03764476994356
H            9.95181185623751        0.80302838406691        0.00987356450684
H            9.87066337918642       -1.17099109102797       -0.01328031862709
H            9.72328780064679       -3.58567403803404       -0.04103122249103
H            7.53291577698494       -4.72313237648370       -0.05427155384455
H            5.45765606288584       -3.36719063040132       -0.03886519991460
H            1.75526095886311        2.21486706925947        0.02233555537354
H           -0.72898545320295        2.21928156255848        0.02242484505809
H           -1.30133108816850        0.13576547464403       -2.45712459277462
H           -2.54081491787408        0.15177026549284       -4.57713060927983
H           -5.00657832943293        0.11575599405330       -4.57822965406344
H           -6.24737967121227        0.06451254662198       -2.46296695954362
H           -6.76792133879868       -2.12792424390197       -0.02667652725403
H           -9.24012115717550       -2.19329569783218       -0.02828308012178
