69
 energy: -112.032640084743 gnorm: 0.000065603259 xtb: 6.7.1 (edcfbbe)
N          -11.90138037399818        0.07410558309012        0.03731446819897
C          -10.75375065271431        0.05961531375566        0.02898387708263
C           -9.34391880438488        0.04214244762738        0.01887350288045
C           -8.64750941566871        0.17928854227100       -1.18588147072279
C           -7.27123147089140        0.17061755192471       -1.18952881018568
C           -6.54658625808009        0.00862345017496       -0.00095709311154
C           -5.08924311404177       -0.00788704074990       -0.01101966797913
C           -4.36847752015044        1.08393762749295       -0.59011074430299
C           -5.02125555457978        2.21770543697791       -1.08218771431480
C           -4.32446755286038        3.23558071985499       -1.72672307225927
C           -2.96077232893865        3.12908590610931       -1.89827224218495
C           -2.27837481190085        2.04046067835243       -1.36239663978948
C           -2.94466521339179        1.03869942999743       -0.65206312507505
C           -2.23742677636098       -0.03867324473567       -0.02805232905785
C           -0.78362790553932       -0.05049730181638       -0.03219419084538
C           -0.05412954124633        1.04846952801391        0.44448384269599
C            1.32070299051377        1.03528549286931        0.45753680002867
C            2.02029123510501       -0.07054358558729       -0.03644665456220
C            3.45739900894159       -0.09678293607991       -0.04664454264874
N            4.20191695839772       -1.05007551683290       -0.53719237290577
C            5.48545156973360       -0.64447111952638       -0.32807378491120
C            6.71703673315919       -1.27457587570338       -0.66271103730989
C            6.75028571337379       -2.50866694666475       -1.31880937919580
C            7.95173741921377       -3.09172746203304       -1.63774507828684
C            9.13783804101015       -2.44273506640679       -1.30156769216896
C            9.11722523239968       -1.22893912540297       -0.65454744560162
C            7.91132527475866       -0.59933706871730       -0.31023912892056
C            7.86721127564545        0.68269054745685        0.37290083204891
C            9.02326908927468        1.37808682169970        0.75516285721855
C            8.95821103479887        2.59094310610952        1.40163839492024
C            7.72876931101615        3.17528835512722        1.70046426258163
C            6.57145149144189        2.52980394922904        1.34538344683471
C            6.62501788868235        1.29355090513589        0.68820560269073
C            5.45990129782291        0.58726721198497        0.31015101816465
O            4.16577478115728        0.93718340480674        0.48708478296381
C            1.30282441424965       -1.16654103949984       -0.52933592378597
C           -0.07097405403095       -1.16027000176154       -0.51232476193921
C           -2.95990216684927       -1.10257962196081        0.60163411518264
C           -2.30703505048371       -2.12091871670260        1.30077759389403
C           -3.00683373875785       -3.19500447529776        1.84351283788707
C           -4.37481568252295       -3.27007118943316        1.69043936209965
C           -5.05683485307860       -2.23546098869203        1.05689493503026
C           -4.38510044217257       -1.11599134773561        0.55765040966664
C           -7.25799396141319       -0.13660106961678        1.19774147902897
C           -8.63399125165723       -0.11223615284689        1.21361646079096
H           -9.19798904067627        0.28764258124149       -2.10905281850865
H           -6.73567559144613        0.25503383525479       -2.12392120971983
H           -6.08893964805898        2.31378849667919       -0.95789588853561
H           -4.86066255211313        4.09435167884939       -2.10135221450597
H           -2.41328811598957        3.89030986336253       -2.43327851268514
H           -1.21158726126466        1.96865332535009       -1.50750587078282
H           -0.58836014091412        1.89736424221476        0.84623758474844
H            1.87063326330074        1.87702928351261        0.85070764338700
H            5.80970441004823       -2.97740945640634       -1.56320976398548
H            7.98206277072650       -4.04403844665092       -2.14574727254585
H           10.08544629989242       -2.89702745300245       -1.55216502080280
H           10.05941365940233       -0.76226701673985       -0.41524237781768
H            9.99622947621444        0.96352808550850        0.54584621406008
H            9.87095771372613        3.09611037624028        1.68156315259677
H            7.69130474428419        4.12734350089857        2.20830332022227
H            5.60355903182274        2.95551872626236        1.56460429907432
H            1.85382900241799       -2.00667275907670       -0.92094778600086
H           -0.61943958918144       -2.00030769957809       -0.91303732337292
H           -1.23693853030477       -2.07473066045539        1.43082417316223
H           -2.46943268441115       -3.96981682816635        2.36906579872631
H           -4.92533526177123       -4.11718324807449        2.07076742709459
H           -6.12801540693484       -2.30691285643246        0.94685149300690
H           -6.71143551554112       -0.23432273180977        2.12444443875637
H           -9.17377987715326       -0.20764356176554        2.14450100683774
