69
 energy: -112.032694413437 gnorm: 0.000104740797 xtb: 6.7.1 (edcfbbe)
N          -11.90176535316457        0.05215736509180        0.06779279322031
C          -10.75413265712420        0.04212152992189        0.05579110844913
C           -9.34430335630892        0.03010871769948        0.04043677183959
C           -8.65147315751707        0.32265634843701       -1.13843431244066
C           -7.27522174361836        0.31804157206986       -1.14654392803345
C           -6.54687965967564        0.00665332813604        0.00962987265619
C           -5.08968449736373       -0.00537693968614       -0.00597626708876
C           -4.37200352200016        1.15054986412051       -0.44743329903442
C           -5.02792011743264        2.33633586212685       -0.79084191407619
C           -4.33606987866383        3.42447307178529       -1.31354377615135
C           -2.97485269736826        3.33679565194280       -1.51453557195045
C           -2.28907620569614        2.19116851202674       -1.12113954458343
C           -2.94866857592400        1.11348636872011       -0.52476227613101
C           -2.23665944841463       -0.02805974438153       -0.03263436179362
C           -0.78446524459122       -0.03786207488338       -0.04188074148093
C           -0.05232643639619        1.01553755125436        0.52719927301143
C            1.32219538660545        1.00237867848367        0.53424388440689
C            2.02128617921384       -0.05944227610933       -0.04966490301082
C            3.45773218029912       -0.08861549250613       -0.05851274194161
N            4.20065849806640       -1.04701442620904       -0.54222603409006
C            5.48470938751016       -0.64576900698818       -0.32937882596114
C            6.71502087267870       -1.28845576465240       -0.64418354021586
C            6.74569997652147       -2.53719474368358       -1.27208295520873
C            7.94590342035080       -3.13768867902554       -1.56208190206553
C            9.13330218757492       -2.49156509019803       -1.22499255730179
C            9.11520223157543       -1.26241036288825       -0.60753426828711
C            7.91066000012667       -0.61438330171390       -0.29407351211257
C            7.86916644598050        0.68386819405320        0.35789639397646
C            9.02665537848267        1.38949253636365        0.71626207584006
C            8.96407349613253        2.61786259649318        1.33304609201095
C            7.73576626734771        3.20780639975992        1.62553996970796
C            6.57710738587195        2.55311661038833        1.29244660795140
C            6.62814779210139        1.30207043270654        0.66358333724349
C            5.46162856480797        0.59115410813167        0.29915171326586
O            4.16826945551187        0.94569339239482        0.47212611818410
C            1.30214453312168       -1.10990583947737       -0.63202772881087
C           -0.07123782166143       -1.10196391743786       -0.61767484007302
C           -2.95717131858116       -1.15950172300029        0.47060311729599
C           -2.30400182581987       -2.24895357463585        1.05251502188240
C           -3.00090062082361       -3.38392340057624        1.45710619296333
C           -4.36700977060270       -3.44890787472197        1.28246554823290
C           -5.05078772423908       -2.34861347394221        0.77485313097341
C           -4.38214740770535       -1.17324572110976        0.42029093286108
C           -7.25476950052646       -0.29291675264848        1.18155369521708
C           -8.63073202040569       -0.27440102748641        1.20375722968506
H           -9.20473901713586        0.54716571830748       -2.03871283534428
H           -6.74245141056702        0.52299139815065       -2.06370173886809
H           -6.09413609498360        2.41668099098953       -0.64460815782838
H           -4.87386266425706        4.32358287040281       -1.57377231246495
H           -2.43182058858245        4.15577054640457       -1.96157193221948
H           -1.22478592456119        2.13550883328919       -1.28948450481426
H           -0.58469184152463        1.82431914791702        1.00659852833287
H            1.87294189019947        1.80729136579106        0.99722344794753
H            5.80416039206755       -3.00440991798715       -1.51570933819388
H            7.97424468186130       -4.10226503090039       -2.04650875964532
H           10.07995205981974       -2.96071223285562       -1.45058971915352
H           10.05835548946544       -0.79962725684592       -0.36450996921932
H            9.99884718350758        0.97209703854536        0.50902931276014
H            9.87790741638082        3.13137319769781        1.59355408401018
H            7.70027009291512        4.17214839099232        2.10978569033949
H            5.61004113326359        2.98403922032108        1.50503507397068
H            1.85223961929151       -1.91499968224243       -1.09245878511363
H           -0.61968283433258       -1.90142116440916       -1.09418839051680
H           -1.23583741018928       -2.21202448571062        1.19984007752098
H           -2.46256845880294       -4.21255261962643        1.89173379471103
H           -4.91438949357797       -4.33958199185845        1.55150276246261
H           -6.12082132834305       -2.41104307049675        0.64916508996317
H           -6.70544678691529       -0.50740110766826        2.08669993532556
H           -9.16773573724604       -0.48993917539089        2.11599485829300
