  54
        -81.34255785
 C         -5.3140950537        1.2174539423        0.2411915381
 C         -4.5178498032        1.5422419117        1.3268596678
 C         -3.2390059480        1.0329381668        1.4368379923
 C         -2.7269734439        0.1907913061        0.4493280289
 N         -1.4283322536       -0.3122044244        0.5509703143
 C         -0.4391266458        0.4114079117        1.2388226281
 C          0.4383240688       -0.2490761603        2.0952190161
 C          1.4404903348        0.4506473162        2.7398029815
 C          1.5744348193        1.8143597577        2.5470699388
 C          0.6921987471        2.4782522857        1.7099417046
 C         -0.3091859888        1.7870919543        1.0577678813
 C         -1.1128936373       -1.5793562960        0.0502893053
 C         -2.0051650185       -2.6409373703        0.2018424398
 C         -1.6910815519       -3.9066116480       -0.2510938634
 C         -0.4700416625       -4.1457829791       -0.8611647853
 C          0.4225439819       -3.1040356117       -1.0316726714
 C          0.1132110153       -1.8218398155       -0.5963068834
 N          1.0420380248       -0.7868723297       -0.7997639819
 C          0.7955717358        0.4060073710       -1.4447184935
 C         -0.3227335891        0.8021595754       -2.1617852023
 C         -0.3151459848        2.0655158066       -2.7206129841
 C          0.7821722044        2.9127275438       -2.5844856668
 C          1.9096334067        2.5113895399       -1.8956461966
 C          1.9240582720        1.2478758295       -1.3211910611
 C          2.8936623179        0.5173128735       -0.5552961058
 C          4.1661885174        0.8152831062       -0.0875619197
 C          4.8335891324       -0.1311074969        0.6636118782
 C          4.2473102753       -1.3611997361        0.9531879047
 C          2.9821871715       -1.6809183176        0.5000749217
 C          2.3099724687       -0.7350295665       -0.2588357968
 C         -3.5371347867       -0.1378107864       -0.6383193007
 C         -4.8169724668        0.3715677440       -0.7360795778
 H         -6.3134827794        1.6167384512        0.1592125801
 H         -4.8982014559        2.1920382688        2.1013648176
 H         -2.6293141631        1.2805339940        2.2931336808
 H          0.3331454131       -1.3142239481        2.2458226706
 H          2.1214912914       -0.0747675473        3.3925046209
 H          2.3629564813        2.3569184770        3.0455151023
 H          0.7922628626        3.5415387521        1.5509401917
 H         -0.9843092272        2.3016163488        0.3901630652
 H         -2.9466572680       -2.4597787036        0.6993858748
 H         -2.3967054614       -4.7121583294       -0.1150482947
 H         -0.2178949335       -5.1354683361       -1.2093293692
 H          1.3696432432       -3.2671452156       -1.5246027159
 H         -1.1715077501        0.1474019047       -2.2826656304
 H         -1.1790238725        2.4027017649       -3.2747002500
 H          0.7488743321        3.8944852957       -3.0335597487
 H          2.7652280204        3.1633977720       -1.8037092105
 H          4.6182547742        1.7712103254       -0.3053693160
 H          5.8239670974        0.0817451076        1.0382632031
 H          4.7931072589       -2.0792267787        1.5477556549
 H          2.5285401332       -2.6317994281        0.7375187393
 H         -3.1624343349       -0.7980008572       -1.4069558614
 H         -5.4281683391        0.1102948365       -1.5876154079
