41
 energy: -63.292320899586 gnorm: 0.000181519849 xtb: 6.7.1 (edcfbbe)
C           -5.85633748824301        2.12370615453120        0.30934095451809
C           -5.82028858372271        0.87316886822021       -0.28550366402045
C           -4.62603138025883        0.18478304214104       -0.39483641923003
C           -3.44486486549645        0.73777550979273        0.09905531910727
C           -2.16763848538385        0.05140864136485       -0.00201722274305
N           -1.01103965527791        0.74573575022957       -0.07225488207122
C           -0.01575414440579       -0.11717442984531       -0.15116675005231
C            1.37870361254449        0.28429177460322       -0.21970386861643
C            1.68870709613562        1.47410944224379       -0.92100799883401
C            2.97384305956577        1.91962869000594       -1.00538976170755
C            4.03103682267482        1.20943732542002       -0.39393537477340
C            5.37096851925383        1.64070813388863       -0.46700140484867
C            6.36684933098382        0.93643781000613        0.15208334676170
C            6.06671276686480       -0.23115035481036        0.87180242661482
C            4.77713545576280       -0.67600719556858        0.96026562983548
C            3.72683462182707        0.02715027865217        0.33139670252344
C            2.38935446367977       -0.40867108201054        0.40857937570108
N           -0.48843067770842       -1.40098420444615       -0.14301270278247
C            0.13664088831821       -2.60312156633361       -0.29951492902735
C           -0.58297320880477       -3.75022841909955       -0.24803207213430
C           -1.98316656009827       -3.71040278667725       -0.02811333324147
C           -2.62146088436070       -2.50961906621240        0.06404664100979
C           -1.88036126204519       -1.31836419643423       -0.03453251504580
C           -3.48926306599854        2.00633549088836        0.68029471999130
C           -4.68412954200081        2.69064784127319        0.78504477920184
H           -6.79184134182096        2.65757533654378        0.39343148654897
H           -6.72850010931819        0.43402400598610       -0.67378372751374
H           -4.60540290932093       -0.77279417224576       -0.89302833546926
H            0.87568066887221        2.01475674851167       -1.38104099666868
H            3.20284416247177        2.82783732352750       -1.54472236320162
H            5.59637255371478        2.54080577693670       -1.02146288397884
H            7.39168816173851        1.27341788751382        0.09262095392122
H            6.86520873679115       -0.77530929213506        1.35545600998988
H            4.54273939597813       -1.57474007791891        1.51374756567510
H            2.17357263281064       -1.28106321772395        1.00934139011626
H            1.19915605914571       -2.57935543738528       -0.48060089930423
H           -0.08555468077905       -4.69829166641602       -0.37142115687833
H           -2.53261969646556       -4.63491149634016        0.04920320919545
H           -3.68572718682807       -2.44833102565930        0.22207344025460
H           -2.56891732557142        2.43822706028675        1.04360793385829
H           -4.70402957103606        3.67087402083993        1.24006840458140
