41
 energy: -63.207971001791 gnorm: 0.000041676723 xtb: 6.7.1 (edcfbbe)
C           -5.83151767407721        2.17815695801255        0.27091516450994
C           -5.86085789578237        0.80972230425548        0.02066400740368
C           -4.69475782381463        0.08598455338900       -0.07277564535074
C           -3.44175039074496        0.71665966364525        0.08530309063389
C           -2.19650212120021        0.04131232334706        0.00970512757699
N           -1.02904433390768        0.75932555212100       -0.05769601654645
C           -0.03412039300630       -0.10032025645564       -0.14130311694624
C            1.34423845032298        0.30200978397546       -0.18088272573519
C            1.64534258170698        1.56302602023927       -0.75101966231093
C            2.93009327295128        2.01065968001598       -0.81974393710294
C            4.00209591254465        1.24157395115284       -0.30144919153526
C            5.33552040148189        1.67620587665007       -0.35888664369813
C            6.34766591159131        0.91425778474475        0.17700375435788
C            6.05986820485284       -0.30852788144786        0.79346515348574
C            4.76836202246632       -0.76194016136917        0.86447185448437
C            3.70681613213794       -0.00573459889560        0.31675535394526
C            2.37769388331735       -0.45309251080191        0.36682437501072
N           -0.49979474227062       -1.40870400509627       -0.15982160590212
C            0.16653683901920       -2.58543221969641       -0.37095870591893
C           -0.54356584071679       -3.78003887005760       -0.30919896215648
C           -1.89656990885902       -3.77690066921502       -0.05956804032801
C           -2.58750828712887       -2.54033253944124        0.06955061728840
C           -1.87507261140458       -1.36305865705406       -0.02495542425022
C           -3.43289567821412        2.11387809128627        0.31464255229326
C           -4.60508735739693        2.82289187047327        0.40953722786273
H           -6.75255089441994        2.73631025758596        0.34616451650026
H           -6.81083779151215        0.31054881617879       -0.10846955037484
H           -4.74156757526229       -0.96388280842393       -0.30784405341438
H            0.82550737171812        2.14601662419971       -1.14117358956237
H            3.15203995163454        2.96570002887839       -1.27373933895772
H            5.55519334999312        2.62372234525522       -0.83011391266117
H            7.37046616659296        1.25862560100126        0.12768041782925
H            6.86432473237350       -0.89454171008269        1.21426438171296
H            4.54315734059577       -1.70709196850007        1.33813970721938
H            2.16710936553400       -1.36846139154143        0.90047030598763
H            1.20801933121375       -2.52975287719586       -0.63004275508393
H           -0.00851213705040       -4.70379807611331       -0.46055998774166
H           -2.44983327722709       -4.69847150801122        0.01359021268690
H           -3.64593208075018       -2.53903491286265        0.25222453490218
H           -2.47523735949404        2.59751832299650        0.42439524398648
H           -4.57682055603630        3.88733340965802        0.59381223773389
