72
 energy: -111.533635901169 gnorm: 0.000045010529 xtb: 6.7.1 (edcfbbe)
N            1.95702055222608        4.37776544938369        3.29186094412048
C            1.05219568667438        3.77036065696967        2.93046436436095
C           -0.09992439714687        3.09239753073583        2.48009208282270
C           -1.29196041198245        3.60941834121461        3.02889817387135
N           -2.22919817173126        4.03609113972506        3.53698731322650
C           -0.06081393679744        2.03709146202306        1.60461238563259
C            1.20836375785356        1.43206020537763        1.21701402655621
C            1.41131256944931        1.02008439499836       -0.10406890642579
C            2.60634617667602        0.46439658341577       -0.49720309077824
C            3.64147799755357        0.27645134473442        0.42544933757501
N            4.84523839658049       -0.29204335061278        0.03355925301164
C            5.35249431701286       -0.06799509159562       -1.25558419387680
C            5.23734105579003        1.18607432894224       -1.85323894657227
C            5.74634634040060        1.40012361009456       -3.11957895780793
C            6.38231666586285        0.37619261201535       -3.80244359314647
C            6.50429326286501       -0.86961750698246       -3.20921418828521
C            5.99145131912671       -1.09608037099030       -1.94646944664772
C            5.58100353405669       -1.08656402288147        0.92685575566615
C            4.93158514183688       -1.98592282555002        1.77088256295832
C            5.66124394624370       -2.77044536017581        2.64296932873191
C            7.04287726278390       -2.67816375475544        2.68020600669780
C            7.69244252743764       -1.79052432558019        1.83819625557337
C            6.97091425996838       -0.99587171449412        0.96829464719763
C            3.43285630729009        0.66625811682268        1.75223910114260
C            2.24279757835726        1.23990034154886        2.13648989585656
C           -1.28333293839646        1.48131616331516        1.04305420675450
C           -2.37133856963778        2.28877200285316        0.69689644238022
C           -3.52776390626102        1.74033916202823        0.19492511928133
C           -3.65031991654972        0.35606856821684        0.02982492169819
N           -4.82767889926375       -0.19775909516463       -0.44723515885962
C           -6.06378235575471        0.40591456668685       -0.16041567349374
C           -6.30805916527732        0.95620790365262        1.09652296837211
C           -7.52862238611951        1.54241537483090        1.37098416734933
C           -8.52156879598327        1.57956106446749        0.40575359746761
C           -8.28443219637647        1.02778934243667       -0.84246869063195
C           -7.06397081658517        0.44716221745241       -1.12970432596427
C           -4.80741585097185       -1.37575535168949       -1.20930492289382
C           -5.78841653268095       -2.34864901752589       -1.02546487301650
C           -5.77495896566513       -3.50073405532306       -1.78774534320124
C           -4.78502439381042       -3.70331122635196       -2.73540340742294
C           -3.80741426299272       -2.73954578137081       -2.92046726839157
C           -3.81693417277323       -1.58054207984678       -2.16862899484493
C           -2.55633074716324       -0.45356900863102        0.35693055876948
C           -1.39624251026487        0.10067906824066        0.84333523343552
H            0.62270825707980        1.15929987333641       -0.82951310560055
H            2.74800426136305        0.15993400962352       -1.52359636628028
H            4.75472544479132        1.98927947326986       -1.31582847385080
H            5.65453396282434        2.37667422095915       -3.57137821931212
H            6.78249220203937        0.54886020687240       -4.78982382897989
H            6.99657272325889       -1.67385173659045       -3.73566063376864
H            6.08151655663764       -2.06940614461686       -1.48666214541169
H            3.85492653408217       -2.06717613587887        1.73420262011948
H            5.14742017917255       -3.46463011737991        3.29138395413263
H            7.60969436465452       -3.29481276598366        3.36082315234540
H            8.76895135073151       -1.70974638519209        1.86390495216797
H            7.47735727706860       -0.29813065579671        0.31771536052861
H            4.21932801850159        0.52553440071349        2.47804776324004
H            2.10442495917076        1.52181554043024        3.16938833810319
H           -2.29361964727393        3.36186108843362        0.78512986981566
H           -4.34929709155535        2.38257711508907       -0.08409646003717
H           -5.53933322480522        0.91898490514258        1.85429621291501
H           -7.70647764564120        1.96554379704749        2.34818266547587
H           -9.47491834279463        2.03531545163642        0.62527920757055
H           -9.05199369448131        1.05580553815364       -1.60160713696233
H           -6.87658986160912        0.02365719295028       -2.10568284975006
H           -6.55640488571209       -2.19437475325281       -0.28185084193411
H           -6.53893303273201       -4.24850549939763       -1.63518398988341
H           -4.77637902882653       -4.60577517073786       -3.32728212867285
H           -3.03644663261525       -2.88615807559236       -3.66244387946823
H           -3.06202569792304       -0.82344866450202       -2.32352350318399
H           -2.63488430088462       -1.52440849564340        0.24213782112189
H           -0.57176936034830       -0.54251382572068        1.11498397727673
