  82
  -133.236318369200       0.536119116938856      !
 N          2.7048380233        2.3324822085       -1.5482092331
 C          1.9134163658        1.6539688771       -1.0555204511
 C          0.9213687119        0.8324722383       -0.5148482425
 C          1.0001757608       -0.5784791369       -0.6206324024
 N          2.1165713946       -1.1528886680       -1.2475681483
 C          3.4511914868       -0.9828243952       -0.9542765704
 C          3.9403749020       -0.2875043879        0.2218651558
 C          3.2168107941       -0.2474951011        1.4131860932
 C          3.7170730784        0.4384694488        2.5043646398
 C          4.9392171626        1.0865051475        2.4227851343
 C          5.6736501581        1.0288764841        1.2484177196
 C          5.1827741201        0.3432546600        0.1553958228
 N          4.2323032513       -1.5471651543       -1.8410679234
 C          3.4170095487       -2.1138283925       -2.7733048211
 C          3.7141636815       -2.8132939282       -3.9406693657
 C          2.6591435035       -3.2393479958       -4.7176304755
 C          1.3314891559       -2.9853289381       -4.3605881882
 C          1.0115239883       -2.2982205382       -3.2061321832
 C          2.0662798825       -1.8762561130       -2.4151426692
 C         -0.0267547295       -1.3823667473       -0.1887712948
 C         -1.1805433499       -0.8152682992        0.3892311388
 N         -2.2088830077       -1.6269894230        0.8287295225
 C         -2.0914748059       -2.8874660827        1.4284594694
 C         -0.9493738631       -3.4171719497        2.0582343641
 C         -0.9332981026       -4.8055535711        2.3609926550
 C          0.1629848134       -5.3805783893        2.9476938392
 C          1.2769252324       -4.6074908243        3.2806143434
 C          1.2543952409       -3.2331832292        3.0502346039
 C          0.1689807613       -2.6376527205        2.4576216350
 N         -3.2914884612       -3.5280678009        1.4517198149
 C         -4.1909235643       -2.6659951046        0.9996638259
 C         -5.5860304215       -2.8123779590        0.8436567742
 C         -6.2767241821       -1.7875080847        0.2506769341
 C         -5.6311211504       -0.6236872189       -0.1947820631
 C         -4.2617130552       -0.4389489528       -0.0384328333
 C         -3.5527216342       -1.4437889793        0.5814919036
 C         -1.2678016824        0.5776454345        0.5115479355
 C         -0.2447664586        1.3856235420        0.0693451236
 N         -0.3717946515        2.7746749072        0.1929403571
 C         -1.4334742711        3.5387240432       -0.2374075058
 C         -2.4953631607        3.0230535883       -1.0883280590
 C         -2.2335935983        2.0913637353       -2.0933048389
 C         -3.2620495284        1.6262667253       -2.8913885041
 C         -4.5571370723        2.0821760183       -2.7005623954
 C         -4.8191019611        3.0230979180       -1.7171420878
 C         -3.7957193212        3.4962275077       -0.9176094047
 N         -1.3539548459        4.7802046170        0.1653413177
 C         -0.1965171153        4.8787074140        0.8816037419
 C          0.3688865750        5.9640702159        1.5445465116
 C          1.5502620868        5.7533542211        2.2229558549
 C          2.1665607349        4.4996052375        2.2538246439
 C          1.6260262022        3.4074632715        1.6037065688
 C          0.4468350266        3.6159419644        0.9087033970
 H          2.2774885319       -0.7720191079        1.4952257661
 H          3.1515637363        0.4663678861        3.4253962249
 H          5.3206520860        1.6275493940        3.2758072157
 H          6.6307781139        1.5239478064        1.1862299256
 H          5.7361297552        0.2917987359       -0.7678289349
 H          4.7382910084       -3.0003591228       -4.2193138099
 H          2.8558445435       -3.7797811227       -5.6311113257
 H          0.5381625747       -3.3326331150       -5.0051259814
 H         -0.0135348807       -2.0928673314       -2.9350279053
 H          0.0473826335       -2.4524950578       -0.3017260773
 H         -1.8003675983       -5.3854296184        2.0894969440
 H          0.1704510865       -6.4407197738        3.1520787040
 H          2.1415311017       -5.0650686839        3.7350507648
 H          2.0975824949       -2.6294253451        3.3548245392
 H          0.1335245816       -1.5651566283        2.3524976271
 H         -6.0703197311       -3.7094872898        1.1917408394
 H         -7.3448138740       -1.8695821352        0.1166497283
 H         -6.2077714433        0.1522924690       -0.6739726445
 H         -3.7888942620        0.4537508776       -0.4118569936
 H         -2.1262961339        1.0245965957        0.9869312085
 H         -1.2243401307        1.7513952824       -2.2677105179
 H         -3.0513943317        0.9069929486       -3.6691608646
 H         -5.3560625218        1.7109301736       -3.3246675436
 H         -5.8243256497        3.3904037994       -1.5744025363
 H         -3.9825674276        4.2322375142       -0.1515686299
 H         -0.1114465780        6.9286852679        1.5209943037
 H          2.0156289777        6.5751480299        2.7458598938
 H          3.0914626437        4.3813949140        2.7977446748
 H          2.1112798776        2.4446351123        1.6277674526
  82
  -133.236181599900       0.463880883061144      !
 N          2.6531277137        2.3395973026       -1.6535223701
 C          1.8807416636        1.6614442011       -1.1308948671
 C          0.9049444737        0.8407539911       -0.5591553371
 C          0.9910922028       -0.5702016580       -0.6578371471
 N          2.1249700887       -1.1459539044       -1.2487341064
 C          3.4473723608       -0.9400488502       -0.9220882574
 C          3.8895170619       -0.1915292510        0.2419002382
 C          3.1640334113       -0.1927239841        1.4321762707
 C          3.6275176670        0.5143387855        2.5265723353
 C          4.8124130586        1.2283592151        2.4460972667
 C          5.5447231072        1.2197938465        1.2691678589
 C          5.0925858244        0.5097463813        0.1745609276
 N          4.2652003709       -1.5471646765       -1.7428026469
 C          3.4887898192       -2.1923023723       -2.6582972870
 C          3.8380164821       -2.9776554018       -3.7536073837
 C          2.8174996955       -3.4904526863       -4.5245176329
 C          1.4750544330       -3.2336387644       -4.2322723280
 C          1.1043606798       -2.4587908238       -3.1506392361
 C          2.1234918648       -1.9537150603       -2.3612803509
 C         -0.0364596321       -1.3752384253       -0.2286674558
 C         -1.1894959177       -0.8108691519        0.3536567074
 N         -2.2140795437       -1.6287576698        0.7909659152
 C         -2.0871689222       -2.9096103140        1.3485619364
 C         -0.9427305220       -3.4576960750        1.9560937132
 C         -0.9290407123       -4.8547929898        2.2193563451
 C          0.1693819016       -5.4500161025        2.7806409106
 C          1.2896516426       -4.6908289893        3.1248146843
 C          1.2707551965       -3.3104892847        2.9331312780
 C          0.1820707894       -2.6938484738        2.3688988695
 N         -3.2844702468       -3.5562081148        1.3583709814
 C         -4.1904957125       -2.6834558702        0.9433775694
 C         -5.5859355204       -2.8335136023        0.7938130817
 C         -6.2886544176       -1.7911823420        0.2480889334
 C         -5.6540730258       -0.6062229791       -0.1559608217
 C         -4.2841309228       -0.4194397279       -0.0073632544
 C         -3.5614759473       -1.4433827988        0.5637030253
 C         -1.2716465793        0.5810315309        0.4922015082
 C         -0.2534458449        1.3925488449        0.0427450872
 N         -0.3693459906        2.7804797979        0.1877333986
 C         -1.4445934563        3.5588965675       -0.1801043444
 C         -2.5541697917        3.0756765003       -0.9876606106
 C         -2.3565059209        2.1633496660       -2.0242626399
 C         -3.4269697497        1.7483262929       -2.7942962096
 C         -4.7006012822        2.2339123330       -2.5422345745
 C         -4.8998672820        3.1518376449       -1.5231069519
 C         -3.8341150745        3.5761734109       -0.7523604356
 N         -1.3309552325        4.7970119250        0.2252047007
 C         -0.1346973609        4.8808297920        0.8758535594
 C          0.4788476167        5.9602928633        1.5049710676
 C          1.6973882673        5.7388800478        2.1103230603
 C          2.3002165651        4.4786040849        2.1052389712
 C          1.7100918309        3.3921237107        1.4894317908
 C          0.4960788404        3.6118182427        0.8617441370
 H          2.2534384616       -0.7663286891        1.5107385885
 H          3.0619997491        0.5077418712        3.4478855727
 H          5.1661388886        1.7836425557        3.3018974178
 H          6.4713556160        1.7698201063        1.2067839449
 H          5.6482673660        0.4919525474       -0.7484514378
 H          4.8744498541       -3.1667237860       -3.9805600747
 H          3.0544370006       -4.1039586316       -5.3803288336
 H          0.7096402388       -3.6507075534       -4.8691195300
 H          0.0667504894       -2.2532318661       -2.9330718431
 H          0.0406147456       -2.4449411768       -0.3413949790
 H         -1.8004878554       -5.4233687468        1.9383760168
 H          0.1743940163       -6.5154663995        2.9551271640
 H          2.1564862979       -5.1644979474        3.5579088050
 H          2.1197349376       -2.7190927915        3.2461323731
 H          0.1486499683       -1.6185579540        2.2962987190
 H         -6.0603243495       -3.7473402655        1.1106261939
 H         -7.3572101621       -1.8753375418        0.1197658094
 H         -6.2402954816        0.1848558770       -0.5973780888
 H         -3.8220840512        0.4905748888       -0.3510426720
 H         -2.1217433613        1.0245702755        0.9853476193
 H         -1.3641367440        1.8008579823       -2.2446736729
 H         -3.2658625499        1.0457358629       -3.5985766234
 H         -5.5320446028        1.9037983871       -3.1466355067
 H         -5.8885165225        3.5411982436       -1.3314590682
 H         -3.9710770492        4.2971671282        0.0380895108
 H          0.0066049744        6.9291632583        1.5098927157
 H          2.2018527179        6.5560750442        2.6033390927
 H          3.2543629890        4.3487139470        2.5930259319
 H          2.1856735179        2.4249908383        1.4912481769
