  94
       -157.71355595
 C          9.5675887049        1.9565208701       -1.2190670245
 C          9.7480324791        2.9378022259       -0.2550398308
 N          8.8555677082        3.1981656840        0.6846751510
 C          7.7439251222        2.4899366577        0.7066267909
 C          7.4541454191        1.4723811077       -0.2033561994
 C          6.1909956392        0.7243697385       -0.1234379279
 C          5.0035823675        1.4085432297       -0.0575772937
 C          3.7750826104        0.7206976520       -0.0371106827
 N          2.6240817582        1.4056402941        0.0155171765
 C          1.4968998168        0.7184400892        0.0229566219
 C          0.2418561567        1.4318156297        0.0625536079
 C          0.2423998737        2.8307024792        0.0483553677
 C         -0.9330198038        3.5397477312        0.0514913886
 C         -2.1497998547        2.8515355124        0.0843907402
 N         -3.3673716724        3.5583422178        0.0629371396
 C         -4.2918120164        3.3544330369       -0.9670159005
 C         -4.0492109678        2.4933141684       -2.0305349706
 C         -4.9909637508        2.3152122744       -3.0323643928
 C         -6.1859446169        3.0041982145       -2.9983026254
 C         -6.4285253862        3.8960775400       -1.9644910620
 C         -5.4919910549        4.0783224575       -0.9636186525
 O         -5.7919054575        5.0058671020        0.0020515653
 C         -4.8848995412        5.1794791983        1.0169362716
 C         -5.2182890687        6.0866811131        2.0054259097
 C         -4.3695010625        6.2915337335        3.0827953754
 C         -3.1989545188        5.5660508321        3.1729533948
 C         -2.8594224095        4.6562250858        2.1833876864
 C         -3.6800615366        4.4670416903        1.0784233029
 C         -2.1602158941        1.4668217192        0.1220555317
 C         -0.9773399560        0.7262354673        0.0990229422
 C         -0.9747849074       -0.7297216576        0.0870798055
 C         -2.1535458595       -1.4759469079        0.1318944534
 C         -2.1383349757       -2.8596915708        0.0698283478
 N         -3.3512548454       -3.5743070902        0.0922604079
 C         -4.3272275712       -3.3587681585       -0.8863606412
 C         -4.1405020279       -2.4821841045       -1.9484968772
 C         -5.1326979021       -2.2920836929       -2.8980425159
 C         -6.3231301742       -2.9846290948       -2.8126136317
 C         -6.5111527620       -3.8917283607       -1.7807349296
 C         -5.5243578266       -4.0857003948       -0.8318266846
 O         -5.7730493601       -5.0270109786        0.1350135535
 C         -4.8166708760       -5.2098645113        1.1018475940
 C         -5.0991448227       -6.1287395677        2.0954724005
 C         -4.1983053975       -6.3430519225        3.1278775263
 C         -3.0264440195       -5.6153984476        3.1686149808
 C         -2.7378499954       -4.6939933222        2.1735789127
 C         -3.6117576930       -4.4949458790        1.1119985884
 C         -0.9206995389       -3.5410629098       -0.0221159341
 C          0.2515153415       -2.8271094851       -0.0415080733
 C          0.2460170996       -1.4291944874        0.0109919959
 C          1.4983539657       -0.7106597723       -0.0151454141
 N          2.6265157425       -1.3939800966       -0.0698844126
 C          3.7760675431       -0.7050156391       -0.0861229997
 C          5.0055806018       -1.3891755019       -0.1387386000
 C          6.1926306849       -0.7014047255       -0.1458712535
 C          7.4601814077       -1.4462488369       -0.1455851907
 C          8.4670628859       -1.1859692088        0.7823153367
 C          9.6342821242       -1.9267965768        0.7347249462
 C          9.7553920509       -2.9075562964       -0.2390802167
 N          8.8060806933       -3.1691069467       -1.1209739087
 C          7.6940923422       -2.4627403369       -1.0726852117
 C          8.4011481881        1.2134520617       -1.1926550914
 H         10.3175068458        1.7813942206       -1.9746479375
 H         10.6421879741        3.5463115208       -0.2322895838
 H          7.0485228326        2.7291941532        1.5014477255
 H          4.9847739146        2.4877798036       -0.0479390270
 H          1.1963583316        3.3326029874        0.0157042552
 H         -0.9306041725        4.6187063184        0.0151233822
 H         -3.1111958758        1.9638529483       -2.0868665712
 H         -4.7752398168        1.6345824725       -3.8414295534
 H         -6.9242387024        2.8656701529       -3.7722160238
 H         -7.3407013799        4.4691508574       -1.9185790552
 H         -6.1513789547        6.6193966757        1.9150783256
 H         -4.6356992411        7.0041565004        3.8471749327
 H         -2.5388323709        5.6967162882        4.0165117392
 H         -1.9505560906        4.0828199571        2.2773476538
 H         -3.1188084380        0.9748300176        0.1648421373
 H         -3.1117751719       -0.9895972719        0.2211624714
 H         -3.2072261978       -1.9499815338       -2.0448826119
 H         -4.9605526234       -1.5989737881       -3.7069300956
 H         -7.1003582475       -2.8367722542       -3.5454501361
 H         -7.4189891453       -4.4674100453       -1.6961585321
 H         -6.0345298027       -6.6627380507        2.0453204336
 H         -4.4251383600       -7.0647342886        3.8965001267
 H         -2.3252700156       -5.7532902629        3.9772149773
 H         -1.8268962829       -4.1191941511        2.2300024564
 H         -0.9154617048       -4.6188613152       -0.0834467493
 H          1.2062333371       -3.3238437455       -0.1103790791
 H          4.9893398780       -2.4685035016       -0.1468434118
 H          8.3274453869       -0.4249474582        1.5371332706
 H         10.4300474368       -1.7505965712        1.4415631927
 H         10.6475800167       -3.5142174075       -0.3185122785
 H          6.9504203131       -2.7030732939       -1.8221718690
 H          8.2151163969        0.4527695655       -1.9376803058
