94
 energy: -157.674015661912 gnorm: 0.000073865625 xtb: 6.7.1 (edcfbbe)
C            9.57735741133167        1.93297795357858       -1.25709281408357
C            9.72330989278727        2.97732315423397       -0.35550383606177
N            8.80955863481274        3.27984931566126        0.55103507523465
C            7.71223400842391        2.55068411532933        0.60126280638385
C            7.45593602093931        1.46986865482313       -0.24456475392542
C            6.20797969957900        0.70456683771164       -0.13756740097352
C            5.00037753022632        1.39028773519245       -0.09321031916634
C            3.78015256733624        0.72387266359117       -0.04793933741880
N            2.61271785251182        1.36870017018557       -0.01454028053630
C            1.45917686921305        0.71308865864562        0.02028266478778
C            0.21782191665428        1.41774691809354        0.05942342035236
C            0.22673617222174        2.82308154679099        0.04075535355169
C           -0.93909953079639        3.53851382174357        0.04902740602563
C           -2.16422724586248        2.85647796328194        0.09750442332279
N           -3.37688214142578        3.58512290933775        0.08848518396660
C           -4.26892815093386        3.46479526902279       -0.97533240200639
C           -4.02157367398867        2.64012999658906       -2.06771368609543
C           -4.93584290273169        2.54247029724623       -3.10386831642821
C           -6.10777459449385        3.27322729868183       -3.07483489177510
C           -6.35770225277507        4.12197384833105       -2.00764682311645
C           -5.44875230474692        4.22460927605801       -0.97011548540227
O           -5.75126393585309        5.10452785233967        0.03631174577047
C           -4.86641705464023        5.20609843754884        1.07832566221711
C           -5.19163103276235        6.08139570443237        2.09848099542453
C           -4.35653378964665        6.21408074301067        3.19724419160554
C           -3.20605971900889        5.45314210876335        3.27611853935867
C           -2.87378727847539        4.57567537118478        2.25688103705606
C           -3.68405922157487        4.45320167282527        1.13333454782756
C           -2.19226133104036        1.47870845475355        0.13880256861669
C           -1.01425100051901        0.72158480158259        0.10650174446691
C           -1.01405103615367       -0.72009847157281        0.10198254857402
C           -2.19145550075305       -1.47815493756008        0.13623664586086
C           -2.16267244799654       -2.85561883514295        0.08617748182174
N           -3.37405187487881       -3.58630377930477        0.08633108001032
C           -4.28108161498440       -3.45959570521603       -0.96393794796502
C           -4.05084485716281       -2.62591374364018       -2.05320724997092
C           -4.97984257809890       -2.52217347175862       -3.07559706853551
C           -6.14961451241356       -3.25589583203809       -3.03591597809240
C           -6.38266844990085       -4.11356952791875       -1.97205825277855
C           -5.45908597999684       -4.22212133478471       -0.94815715718772
O           -5.74569963964669       -5.11050025539757        0.05551502024482
C           -4.84896471786097       -5.21408682204111        1.08705902361786
C           -5.16095100344393       -6.09364796090335        2.10770012279529
C           -4.31306476507755       -6.22894940304075        3.19628754316549
C           -3.16305756672348       -5.46631359544091        3.26468621938474
C           -2.84417654192585       -4.58439448082714        2.24504001598231
C           -3.66750902472821       -4.45911798697431        1.13131254106851
C           -0.93743015963757       -3.53638274452411        0.02364292157350
C            0.22792269667067       -2.82026701678877        0.01499896146444
C            0.21815970125764       -1.41518420854667        0.04617912592429
C            1.45914703384618       -0.70969935812595        0.01275861837853
N            2.61255939858341       -1.36500069569226       -0.02823680916686
C            3.77998858285925       -0.72000119596568       -0.05428233961642
C            5.00034206164616       -1.38673944300593       -0.08762001958700
C            6.20854111087508       -0.70138005480639       -0.11889250253736
C            7.46012619888087       -1.46759053771341       -0.09170934417232
C            8.49060904344052       -1.16785252818261        0.79903331749335
C            9.64306705838443       -1.93205734090992        0.77969819852660
C            9.72751419674197       -2.97897834812882       -0.12673584122308
N            8.75545344377515       -3.28190312985374       -0.97028879843284
C            7.65853566305043       -2.55080259743749       -0.95008467976111
C            8.42486079627884        1.17060482427655       -1.20205732587852
H           10.34336197749738        1.72547905824286       -1.98833733625384
H           10.60554773289173        3.60368607342573       -0.35779777388571
H            6.99970939032203        2.82713087209028        1.36850409072141
H            4.99000689676143        2.46922528821095       -0.11910000673437
H            1.18444142060383        3.31861248607406        0.00213639125633
H           -0.93206949019311        4.61735504384982        0.01142936216150
H           -3.10261061314088        2.07750804234421       -2.11216444002046
H           -4.72000750494921        1.89112169110851       -3.93657731976108
H           -6.82315948475885        3.19691651847555       -3.87811677502697
H           -7.25335720481264        4.72047597621279       -1.96226834156395
H           -6.10577193228512        6.64689845922416        2.01469985954092
H           -4.61534926716147        6.90152054783981        3.98676341587720
H           -2.55728880375098        5.53360963233329        4.13449042794802
H           -1.98068867397963        3.97611064975888        2.33525876573178
H           -3.15485191256346        0.99443498314367        0.18903797418425
H           -3.15388111231469       -0.99486063436741        0.19764757945125
H           -3.13374026300179       -2.06099827895379       -2.10618548814156
H           -4.77737210255710       -1.86357715413810       -3.90595084539613
H           -6.87639615795412       -3.17491494285176       -3.82843427104114
H           -7.27621562380862       -4.71457268396555       -1.91883548117272
H           -6.07502228740561       -6.66043579469100        2.03233745839930
H           -4.56162308175143       -6.91963619603565        3.98626553451432
H           -2.50421150428156       -5.54875081990408        4.11516865682449
H           -1.95127009335909       -3.98360045244837        2.31562139521236
H           -0.93003756731616       -4.61488889715781       -0.02247894372649
H            1.18576216748683       -3.31480875395537       -0.03199438912880
H            4.99113559337865       -2.46565394550010       -0.06002662723295
H            8.37942532049799       -0.35600475292521        1.50393016611585
H           10.45602113016933       -1.72409403874231        1.45821740422248
H           10.60683364959732       -3.60709194381155       -0.18093019839633
H            6.89665322251538       -2.82762553605884       -1.66818333903235
H            8.26592052061655        0.36047184275554       -1.89975742685879
