94
 energy: -157.712942612727 gnorm: 0.000039984723 xtb: 6.7.1 (edcfbbe)
C            9.55064173264290        1.89640568541527       -1.05811751048133
C            9.69514425885922        2.92624796161447       -0.13977091292940
N            8.76922436243007        3.23134099571025        0.75294119150077
C            7.65878901206927        2.52126027561476        0.77167961635093
C            7.40282085850409        1.45783790597146       -0.09516886646288
C            6.13778796957070        0.71261049610805       -0.02130451966518
C            4.94982710052989        1.39900737285310       -0.02304899705976
C            3.72018802966950        0.71317468235394       -0.00638576006561
N            2.56954833620098        1.40025633398864       -0.01430514231324
C            1.44150534547054        0.71437976551750       -0.00703807274529
C            0.18714273213355        1.42973625463226       -0.02064849334043
C            0.19543928792157        2.82832712029517       -0.04342377644368
C           -0.97641461308642        3.54226510578879       -0.06225488598520
C           -2.19610650907407        2.85899830824450       -0.07007415843593
N           -3.40787343012357        3.57766474085987       -0.08868925059082
C           -3.70222764812861        4.44189350855306       -1.14702372351615
C           -2.88449044866879        4.55042012327978       -2.26489569429082
C           -3.20703036732611        5.41525824832092       -3.29962671875801
C           -4.35714556934862        6.17566197161727       -3.24110245270178
C           -5.20231377612954        6.05270335776812       -2.14826843176365
C           -4.88624587722158        5.19040535015986       -1.11496597143592
O           -5.78823643566535        5.09768439044749       -0.08491538092667
C           -5.49104408946713        4.23700042706808        0.94181499016199
C           -6.40600240506200        4.15954965864464        1.97537934611147
C           -6.16314335339278        3.33880576022287        3.06663386330353
C           -4.99073666148909        2.61328773551231        3.12249005277607
C           -4.07060866316494        2.68599251183041        2.08764155640642
C           -4.31324574724879        3.47787086518543        0.97210398864448
C           -2.21535817077306        1.47396536702104       -0.05375196027636
C           -1.03522041327564        0.72817262364954       -0.01588739401967
C           -1.03525250561552       -0.72816550795578        0.01608206061886
C           -2.21543274051414       -1.47390896828923        0.05357802339468
C           -2.19624258805422       -2.85894170499379        0.06997639499605
N           -3.40805090429028       -3.57755127228465        0.08816095689789
C           -4.31297868381898       -3.47779185869609       -0.97301455101226
C           -4.06985273844502       -2.68598641877898       -2.08849765128888
C           -4.98954947718944       -2.61331022111744       -3.12373045753321
C           -6.16200079068824       -3.33878979104804       -3.06832032441954
C           -6.40533958881541       -4.15946154247691       -1.97711850739392
C           -5.49081430736041       -4.23688126156280       -0.94316899602521
O           -5.78845985899755       -5.09749287367107        0.08349170951607
C           -4.88690462723612       -5.19017221064343        1.11392805068417
C           -5.20342893001416       -6.05239146447248        2.14715650428350
C           -4.35871708429188       -6.17530662494334        3.24034805584915
C           -3.20859956034987       -5.41493982190311        3.29929931105679
C           -2.88560270449831       -4.55017964198764        2.26464601974062
C           -3.70287350294001       -4.44169907157741        1.14642897409171
C           -0.97657767701912       -3.54225941615619        0.06264548224556
C            0.19531175977266       -2.82836971910977        0.04414142424877
C            0.18708070691125       -1.42978072767362        0.02124401670908
C            1.44147750202899       -0.71447838458869        0.00783928220654
N            2.56949400782690       -1.40039884911687        0.01523837029049
C            3.72016248778338       -0.71336225895837        0.00741989507413
C            4.94977946227005       -1.39923628914244        0.02415123453596
C            6.13776454032053       -0.71287815134313        0.02245994053203
C            7.40278464214016       -1.45811874129110        0.09639762101755
C            8.38473025180868       -1.15243269953894        1.03713027645795
C            9.55056854908593       -1.89662885057098        1.05946102210116
C            9.69513925751087       -2.92647704283462        0.14113201769469
N            8.76927071801804       -3.23159944081716       -0.75162313190078
C            7.65881290252055       -2.52155375547889       -0.77041702841829
C            8.38481413904791        1.15218843948317       -1.03586210298119
H           10.32771648324282        1.68504091535444       -1.77605874940762
H           10.58705530177996        3.53801221971308       -0.11627838152164
H            6.93492826672013        2.79877721930021        1.52768743759852
H            4.93206285487339        2.47754553290865       -0.06378911384444
H            1.15234460004595        3.32551012380586       -0.03611472707808
H           -0.96978768813012        4.62182828616602       -0.06543633885100
H           -1.99106633833821        3.94959958956920       -2.33225417199306
H           -2.54965296813485        5.48360838066927       -4.15268068808013
H           -4.60995586549553        6.85375690622083       -4.04071883735987
H           -6.11909827006645        6.61613263771319       -2.08011585622590
H           -7.30133558958523        4.75667648809058        1.90903983521614
H           -6.88400440872504        3.28275864338821        3.86680987049110
H           -4.77631766989259        1.98555300545294        3.97371661618523
H           -3.14962523912000        2.12861744232449        2.15698537652318
H           -3.17673847168871        0.98600114734034       -0.07933687603756
H           -3.17680258452007       -0.98590542163517        0.07880955278047
H           -3.14882111146162       -2.12864695474571       -2.15749212752657
H           -4.77474473200055       -1.98565228741782       -3.97491673676892
H           -6.88251929691036       -3.28277968785530       -3.86880789979368
H           -7.30072039594045       -4.75655471662926       -1.91111580868212
H           -6.12020156934283       -6.61579893862959        2.07865874477327
H           -4.61189010963099       -6.85332943359115        4.03991114771615
H           -2.55159237727999       -5.48323637819519        4.15264312323111
H           -1.99219270878967       -3.94937477336705        2.33233867447320
H           -0.96999586705094       -4.62182252871621        0.06593933662223
H            1.15219894115850       -3.32559282566367        0.03717394936548
H            4.93197872865172       -2.47777419633489        0.06487956353681
H            8.22689728600577       -0.35385095432966        1.74826040079259
H           10.32759774640642       -1.68524376507665        1.77744595368561
H           10.58708398996155       -3.53819317299202        0.11766158417662
H            6.93501418101806       -2.79907324720292       -1.52648292593790
H            8.22705537798266        0.35358298366959       -1.74698235237936
