  99
       -149.80248464
 C         -8.6448384226       -4.1375605125        2.8747335867
 C         -7.6367965361       -3.2841798923        2.1711327067
 C         -7.9254691494       -2.6895456831        0.9471722916
 C         -6.9913933241       -1.9161658279        0.2899729991
 C         -5.7285738320       -1.7116334091        0.8502839960
 N         -4.7772831126       -0.9291474121        0.2005773352
 C         -5.1702733372        0.1661817061       -0.5800452527
 C         -4.5148154648        0.4404624266       -1.7825992930
 C         -4.8784303923        1.5316887715       -2.5427629338
 C         -5.9052090488        2.3770458499       -2.1348596693
 C         -6.3101261506        3.5524885243       -2.9665711958
 C         -6.5625632443        2.0919501387       -0.9405392976
 C         -6.2054133910        1.0063630874       -0.1680335405
 C         -3.4275761114       -1.2394050645        0.2660009697
 C         -2.9871695846       -2.5808693787        0.2553866155
 C         -1.6556202032       -2.8901902015        0.1687937465
 C         -0.7071749409       -1.8515986974        0.1031577000
 C         -1.1568469347       -0.5011881722        0.1856550690
 C         -2.4806164340       -0.1931243514        0.2562832282
 C         -0.0004532040        0.4492072876        0.0241031658
 C          0.3303492786        1.3850577497        1.1666461027
 C          0.7902105647        1.0569306620        2.4110013084
 C          1.1688557773        2.0977423009        3.2813375411
 C          1.6980887601        1.7949972003        4.5420230596
 N          2.1644907836        1.5453020163        5.5659368857
 C          1.0675355669        3.4389677140        2.8676144154
 C          0.6079498042        3.7588089054        1.6133542998
 C          0.2424088872        2.7308193404        0.7383615947
 C         -0.2031057098        2.7550061124       -0.6206093839
 C         -0.5474661009        3.8152265006       -1.4651978537
 C         -1.0108690169        3.5412993082       -2.7288789205
 C         -1.1374687005        2.2150132804       -3.1819836218
 C         -1.6705403696        1.9597340831       -4.4513182891
 N         -2.1445919400        1.7499479706       -5.4807589785
 C         -0.7798216012        1.1418205499       -2.3423861830
 C         -0.3162633204        1.4241799629       -1.0882989938
 C          1.1500124304       -0.5050022269       -0.1576766058
 C          2.4738108014       -0.2011952443       -0.2433891314
 C          3.4170302963       -1.2504059920       -0.2662734349
 N          4.7687098056       -0.9445567348       -0.2222904651
 C          5.1757377039        0.1549504865        0.5448211118
 C          6.2061538809        0.9906271467        0.1120109982
 C          6.5749293128        2.0818276713        0.8707368329
 C          5.9341833694        2.3776665852        2.0715791437
 C          6.3286764727        3.5807022116        2.8682546284
 C          4.9125532568        1.5367049781        2.5003387688
 C          4.5380192047        0.4391688498        1.7546008334
 C          5.7057603976       -1.7278844719       -0.8914051469
 C          5.3816860760       -2.3242707433       -2.1137776593
 C          6.3094833621       -3.0983908352       -2.7753124944
 C          7.5840351367       -3.3031751890       -2.2515473587
 C          8.5759671825       -4.1483526337       -2.9873600266
 C          7.8996671730       -2.7073449323       -1.0354979897
 C          6.9800754112       -1.9327178943       -0.3586137951
 C          2.9723572396       -2.5904491576       -0.2484664543
 C          1.6407309740       -2.8954868847       -0.1488548712
 C          0.6960782512       -1.8539312183       -0.0757189564
 C         -5.4315123261       -2.3068355071        2.0796882607
 C         -6.3742909522       -3.0798243021        2.7220608721
 H         -8.6260632655       -3.9515824473        3.9466442595
 H         -8.4174400081       -5.1923601322        2.7163302553
 H         -9.6471722202       -3.9464419337        2.4999222354
 H         -8.8960140244       -2.8409649387        0.4975362336
 H         -7.2260894741       -1.4748218702       -0.6672414985
 H         -3.7263439474       -0.2144530721       -2.1213623169
 H         -4.3609520004        1.7235701265       -3.4711074027
 H         -7.2276342109        3.3264473011       -3.5108948598
 H         -6.5008414810        4.4218756714       -2.3403347992
 H         -5.5373773164        3.7970965752       -3.6904405371
 H         -7.3601421489        2.7396865393       -0.6063072554
 H         -6.7111022000        0.8098572935        0.7661229752
 H         -3.7278956425       -3.3673313619        0.2595438560
 H         -1.3363984070       -3.9196340772        0.1122141417
 H         -2.8137631932        0.8334662639        0.2961135689
 H          0.8759646713        0.0274727624        2.7307294770
 H          1.3690265075        4.2167580877        3.5552021356
 H          0.5475674832        4.7900058075        1.2979717379
 H         -0.4682025291        4.8353333517       -1.1194553174
 H         -1.2965798450        4.3447515743       -3.3933395334
 H         -0.8831095180        0.1241318517       -2.6929667799
 H          2.8092343367        0.8245205116       -0.2864728953
 H          6.6996129698        0.7855998335       -0.8268476224
 H          7.3690735277        2.7256025274        0.5209445634
 H          5.9519924140        4.4847351531        2.3887922711
 H          5.9173659448        3.5309394437        3.8728592954
 H          7.4120177348        3.6649850845        2.9307822621
 H          4.4079919233        1.7355930691        3.4343452421
 H          3.7554682083       -0.2132979670        2.1113511156
 H          4.4047655761       -2.1562637998       -2.5422913114
 H          6.0481492551       -3.5461890357       -3.7230831460
 H          8.6950510119       -3.7927534775       -4.0098459280
 H          9.5450467799       -4.1306618301       -2.4957669545
 H          8.2305970177       -5.1809307618       -3.0351621786
 H          8.8795313352       -2.8583567049       -0.6063656460
 H          7.2356394028       -1.4916024771        0.5933460985
 H          3.7104550835       -3.3793150348       -0.2597406885
 H          1.3188070489       -3.9239228609       -0.0891572451
 H         -4.4641232279       -2.1387231899        2.5292958413
 H         -6.1331441737       -3.5263034241        3.6757652496
