99
 energy: -149.804142619314 gnorm: 0.000125986677 xtb: 6.7.1 (edcfbbe)
C           -8.65440203365442       -4.10410038086615        2.87330210417224
C           -7.62888809732048       -3.28172943507385        2.15797374374348
C           -7.91842400138398       -2.69255418458344        0.93050307397792
C           -6.98753620237973       -1.91754350806678        0.27204799575145
C           -5.72649915788748       -1.70484363239777        0.83420963165954
N           -4.77493534712448       -0.92670597173982        0.17937083464324
C           -5.16680934929094        0.16030552488668       -0.61392885548630
C           -4.51103215907940        0.41891631872224       -1.81922778166635
C           -4.87187352350101        1.50264349427922       -2.59204314142353
C           -5.89575923668610        2.35500943242583       -2.19360404644532
C           -6.29231683780097        3.53113019963341       -3.02880162379138
C           -6.55429955993168        2.08475412008045       -0.99608074877376
C           -6.20039218924167        1.00703244761988       -0.21155835928881
C           -3.42482788530141       -1.23464619581696        0.24959868701117
C           -2.98237256812750       -2.57589341181954        0.25053148312846
C           -1.65072842027105       -2.88392334925146        0.16860522653525
C           -0.70294958612964       -1.84416261026262        0.09681081010304
C           -1.15519948151303       -0.49316368285236        0.16645928975082
C           -2.47923925226192       -0.18671403004802        0.23147564129553
C            0.00041100990562        0.45746541678863       -0.00285753404977
C            0.31926203900119        1.41779613742872        1.12197459966878
C            0.77442312767289        1.11791833398530        2.37537215908035
C            1.14148528328844        2.17859921120856        3.22619039470544
C            1.66621874273789        1.90540410400232        4.49566434572240
N            2.13195983185325        1.68123935315831        5.52557746171601
C            1.03392838665703        3.51052217130081        2.78538262338718
C            0.57904422654385        3.80197699131172        1.52237771709817
C            0.22473792459183        2.75410884727716        0.66701787451267
C           -0.21442873001956        2.74845339412189       -0.69473909822047
C           -0.56382538402128        3.78952809030079       -1.56034342374883
C           -1.02004258738791        3.48781308427483       -2.82045893381336
C           -1.13382253990622        2.15216058639790       -3.24818737123996
C           -1.65979439688745        1.86899935897957       -4.51494405454423
N           -2.12663217867478        1.63672657940276       -5.54258355693213
C           -0.77161184081409        1.09816004958294       -2.38702024478388
C           -0.31509839745818        1.40818381599591       -1.13659266199997
C            1.15433950821806       -0.49705120406368       -0.16199533985204
C            2.47873717002745       -0.19339069739735       -0.23256364821136
C            3.42277047856293       -1.24282318070203       -0.23801901906620
N            4.77341991881643       -0.93598108807019       -0.17399529819922
C            5.16814144764940        0.16148392161156        0.60333965058190
C            6.20255373113760        1.00073850260861        0.18758618971241
C            6.55926552134254        2.08888649500637        0.95622373359482
C            5.90278965748595        2.37723541309960        2.15070055788122
C            6.30087680940674        3.56620510065852        2.96679080176030
C            4.87809738670292        1.53231568006959        2.56255719691117
C            4.51447479661828        0.43824097791439        1.80572991610105
C            5.72274730445859       -1.72458723210167       -0.81952837787529
C            5.42313975868651       -2.32680137299879       -2.04466175462881
C            6.36112155056220       -3.11179473017862       -2.67973211047009
C            7.62086156883869       -3.32168218378656       -2.12502557333638
C            8.63645597103925       -4.15887035845360       -2.83734545124531
C            7.91332058380934       -2.71695040083378       -0.90692481814409
C            6.98404526678653       -1.93156556210818       -0.25707251296642
C            2.97836644757434       -2.58331927931114       -0.22040747583179
C            1.64636171910685       -2.88831746245882       -0.13319499397050
C            0.70012292003715       -1.84632988890007       -0.07452939706272
C           -5.43015979631443       -2.29084364313976        2.06740273672802
C           -6.37071723551753       -3.06634227264802        2.71177510758515
H           -9.28823482386304       -3.45983029101043        3.48406329416516
H           -8.18169204180718       -4.83040057798135        3.52998729317846
H           -9.29359443761611       -4.62779343896807        2.16609754227876
H           -8.88706023129869       -2.85311912978146        0.47987830687660
H           -7.22106067310628       -1.48381949566153       -0.68894371305078
H           -3.72444974827525       -0.24202924997754       -2.15066159304991
H           -4.35325460685854        1.68212840233226       -3.52223088051504
H           -7.30889684568076        3.40510727843482       -3.40088749707306
H           -6.26762992973582        4.44496547062375       -2.43679659188193
H           -5.62417274226260        3.64422407894451       -3.87815825682238
H           -7.35053659325732        2.73844417020797       -0.67020808099309
H           -6.70748480454518        0.82129192561503        0.72406502043589
H           -3.72215565066749       -3.36319535612089        0.26026216955792
H           -1.32963687411511       -3.91323147369151        0.12107165663207
H           -2.81436164711644        0.83960518661787        0.26158256988412
H            0.86465365772130        0.09573769197857        2.71635668428672
H            1.32733612384228        4.30390865199525        3.45839991812126
H            0.51448328260314        4.82611701617702        1.18563079151225
H           -0.49447926775552        4.81661756569448       -1.23368596935342
H           -1.30970655335382        4.27593088430627       -3.50124911911838
H           -0.86640235551461        0.07312251765704       -2.71802144130865
H            2.81521650583118        0.83197964865151       -0.27659436119926
H            6.70814247473449        0.80086561627642       -0.74593287114817
H            7.35611795191887        2.73659427634833        0.62007593082524
H            7.33171183357815        3.46567633961235        3.30546135083348
H            6.23578333426855        4.47560402252318        2.37072427419821
H            5.65790526698678        3.67035922640726        3.83645984144476
H            4.36112103005645        1.72559002064760        3.49090142129915
H            3.72743561786640       -0.21671960950328        2.14779382896279
H            4.45642708338091       -2.15782901590191       -2.49541661318803
H            6.11717283481114       -3.56566321154098       -3.62922941639083
H            9.10934698050441       -3.57766960636663       -3.62986670834710
H            9.41265402478558       -4.49494755977122       -2.15446590834862
H            8.16812796150508       -5.02692621097410       -3.29656299397351
H            8.88218105608175       -2.87191448086533       -0.45484407255087
H            7.22022096094657       -1.48534025297246        0.69751794070096
H            3.71701100483921       -3.37175073038067       -0.22018473355509
H            1.32384569200673       -3.91643615006981       -0.07160925968926
H           -4.46398320496655       -2.11761787904442        2.51767510807665
H           -6.12763077376358       -3.50737940278244        3.66750613058058
