  68
  -116.363317852700       0.245633532350094      !
 C          5.8427062805       -4.0654799067        0.1685713417
 C          7.0580057268       -3.3967550305        0.0458156358
 C          7.1143296257       -2.0204215825       -0.0517654724
 C          5.9205470092       -1.3081974928       -0.0249497433
 C          4.7001182731       -2.0011663082        0.1027702610
 C          4.6408935982       -3.3777265398        0.1996984050
 O          3.6394765781       -1.1434126995        0.1101559177
 C          4.1604352829        0.1085354793       -0.0115209753
 C          5.5686360868        0.0816829359       -0.0970728204
 C          6.3155781285        1.2587238819       -0.2031880916
 C          5.6635857342        2.4721331088       -0.2004955607
 C          4.2729901983        2.5121977272       -0.1059006955
 C          3.3448217942        3.6018744976       -0.0175370325
 C          3.4909534261        4.9832584372       -0.0161869905
 C          2.3590590937        5.7686532718        0.0942570490
 C          1.0926171146        5.1978475806        0.2069683337
 C          0.9209459066        3.8250327100        0.2068077922
 C          2.0535005178        3.0346688483        0.1000937204
 N          2.1557527794        1.6520477901        0.0717267342
 C          1.0931041958        0.7830187806        0.0789377781
 C          1.0481348802       -0.3449277929       -0.7308020811
 N         -0.0027480812       -1.1323015264       -0.8021246491
 C         -1.0963444320       -0.8101064559       -0.0416463229
 N         -2.1657469398       -1.6710131100       -0.0419529952
 C         -2.0780557514       -3.0543593884       -0.0604367108
 C         -0.9523840933       -3.8567003750       -0.1482288781
 C         -1.1383550981       -5.2275270693       -0.1410283237
 C         -2.4119938794       -5.7841978467       -0.0397086070
 C         -3.5370804719       -4.9865944908        0.0514377951
 C         -3.3767856124       -3.6068901111        0.0451847224
 C         -4.2943052572       -2.5065980171        0.1143143000
 C         -5.6855237196       -2.4492801970        0.1894867184
 C         -6.3230941437       -1.2282601557        0.1730421655
 C         -5.5613118119       -0.0606817971        0.0680704756
 C         -5.8951507850        1.3327329423       -0.0218872142
 C         -7.0803918667        2.0597684300       -0.0202877319
 C         -7.0058262958        3.4342779473       -0.1306161224
 C         -5.7807915227        4.0869630997       -0.2410864084
 C         -4.5870937704        3.3843566905       -0.2470995525
 C         -4.6645988614        2.0096781720       -0.1376825788
 O         -3.6143555194        1.1392659105       -0.1214033529
 C         -4.1524931160       -0.1048944500        0.0033750186
 C         -3.5027075151       -1.3286053290        0.0473368484
 C         -1.0507957514        0.3164964980        0.7696748262
 N          0.0013017437        1.1017442092        0.8435400388
 C          3.4953665612        1.3247226153       -0.0368154904
 H          5.8361313785       -5.1423261464        0.2411045790
 H          7.9730481283       -3.9694987474        0.0272320541
 H          8.0576402660       -1.5051483049       -0.1464535105
 H          3.6952692597       -3.8869400695        0.2946813834
 H          7.3906887220        1.2053051991       -0.2691297980
 H          6.2199134004        3.3945603980       -0.2581197389
 H          4.4699387722        5.4301314861       -0.0980695858
 H          2.4539031164        6.8444376983        0.0939310384
 H          0.2292036117        5.8400316370        0.2921808466
 H         -0.0561711532        3.3776701387        0.2946647710
 H          1.8521980783       -0.5586756806       -1.4178520573
 H          0.0301239775       -3.4195605593       -0.2273584852
 H         -0.2808041601       -5.8793599343       -0.2111844217
 H         -2.5180134025       -6.8588500806       -0.0332852226
 H         -4.5215050031       -5.4229816669        0.1240458767
 H         -6.2538445617       -3.3646636586        0.2463403216
 H         -7.3983479372       -1.1620385356        0.2228048594
 H         -8.0313256756        1.5569941986        0.0646406754
 H         -7.9141467307        4.0183505456       -0.1323739438
 H         -5.7600309791        5.1628140769       -0.3243488185
 H         -3.6339869981        3.8809076537       -0.3332905570
 H         -1.8561778465        0.5306109982        1.4552658320
  68
  -116.363240252000       0.226268887300594      !
 C          5.6386503896       -4.0926066345        0.6695498972
 C          6.8836200629       -3.4785569708        0.5604553057
 C          6.9982141922       -2.1186027428        0.3488091693
 C          5.8333849943       -1.3665920235        0.2460922908
 C          4.5818345700       -2.0047014432        0.3606672092
 C          4.4644096121       -3.3647624549        0.5713239388
 O          3.5555032953       -1.1142120955        0.2384641384
 C          4.1315596525        0.1042698950        0.0507554257
 C          5.5397607783        0.0244953724        0.0437922446
 C          6.3312701166        1.1667964783       -0.1102153725
 C          5.7247386017        2.3983846242       -0.2307198668
 C          4.3334909386        2.4920561147       -0.2089109237
 C          3.4350856981        3.6110175632       -0.2383957549
 C          3.6193519283        4.9845674067       -0.3310484784
 C          2.5057715557        5.8036997988       -0.3269409712
 C          1.2198676844        5.2758569756       -0.2261056640
 C          1.0094727639        3.9117277681       -0.1321063856
 C          2.1233106292        3.0888930230       -0.1359511055
 N          2.1852459625        1.7070021632       -0.0664875696
 C          1.1078604222        0.8543872439       -0.0671289379
 C          1.0692069150       -0.2737071604       -0.8757135728
 N          0.0132277730       -1.0519021873       -0.9638850740
 C         -1.0791294952       -0.7416689653       -0.1945252454
 N         -2.1339310566       -1.6193030703       -0.1941569269
 C         -2.0138048694       -2.9976536310       -0.3049358907
 C         -0.8770239381       -3.7657811276       -0.4980380657
 C         -1.0321121350       -5.1382943619       -0.5774405678
 C         -2.2863140993       -5.7333973254       -0.4546681511
 C         -3.4219378644       -4.9718097758       -0.2552015432
 C         -3.2919228485       -3.5910262895       -0.1750410360
 C         -4.2304452030       -2.5241884790        0.0128184519
 C         -5.6155462732       -2.5196838708        0.1725948580
 C         -6.2882167828       -1.3234041600        0.2831488031
 C         -5.5669715244       -0.1277916883        0.2148633867
 C         -5.9482061574        1.2553539676        0.2545315444
 C         -7.1510397899        1.9376202973        0.4000896411
 C         -7.1250040113        3.3181674846        0.3980199383
 C         -5.9312801566        4.0203326131        0.2528635011
 C         -4.7212544104        3.3629830478        0.1039537647
 C         -4.7501290013        1.9820831282        0.1074331923
 O         -3.6761607360        1.1500986168       -0.0135038652
 C         -4.1644148084       -0.1192752141        0.0567497951
 C         -3.4747350358       -1.3203044831       -0.0185155477
 C         -1.0307417589        0.3785625031        0.6262387721
 N          0.0141428043        1.1753840443        0.6906713219
 C          3.5156846169        1.3369041568       -0.0944068519
 H          5.5865142236       -5.1578199645        0.8354906922
 H          7.7756287876       -4.0812546243        0.6442116495
 H          7.9645864651       -1.6457742272        0.2660058902
 H          3.4959259807       -3.8307485590        0.6574613989
 H          7.4058716867        1.0750759004       -0.1156883834
 H          6.3178891418        3.2943737777       -0.3270376204
 H          4.6126436537        5.4001779598       -0.4048368307
 H          2.6309847541        6.8735926268       -0.4028545295
 H          0.3726655506        5.9447839948       -0.2255761483
 H          0.0180485396        3.4951331963       -0.0519863872
 H          1.8845724951       -0.4912471633       -1.5490116527
 H          0.0916184628       -3.3017002079       -0.5914273049
 H         -0.1641705736       -5.7612133608       -0.7322764826
 H         -2.3682088722       -6.8083355791       -0.5171107700
 H         -4.3921858229       -5.4358941562       -0.1657797383
 H         -6.1508526570       -3.4559596975        0.1988009726
 H         -7.3592652938       -1.2956380877        0.4054527577
 H         -8.0776496162        1.3965153599        0.5136944102
 H         -8.0472538582        3.8681155341        0.5121156088
 H         -5.9481135988        5.0995230251        0.2581453679
 H         -3.7919891289        3.8981191776       -0.0075697227
 H         -1.8256914340        0.5813974067        1.3260742648
  68
  -116.363121924300       0.199638912471616      !
 C          5.3489881572       -4.2290689391        0.2429856405
 C          6.6254505606       -3.6773506454        0.1734567333
 C          6.8153253632       -2.3121972196        0.0854523658
 C          5.6940985142       -1.4901010898        0.0654103861
 C          4.4099054888       -2.0663830575        0.1373614322
 C          4.2169612237       -3.4310219875        0.2272155288
 O          3.4342050826       -1.1137783918        0.1014672076
 C          4.0746101420        0.0833580184        0.0062008652
 C          5.4765482853       -0.0728166238       -0.0150862768
 C          6.3294426358        1.0336526138       -0.0768198514
 C          5.7910592540        2.3020871416       -0.0914317142
 C          4.4068096729        2.4694916859       -0.0620481306
 C          3.5713817698        3.6345626214       -0.0007701045
 C          3.8327666823        4.9983843757        0.0307315125
 C          2.7665729529        5.8752790756        0.1035127353
 C          1.4521777546        5.4138425329        0.1499778542
 C          1.1650910981        4.0606781286        0.1189702727
 C          2.2312411108        3.1798887046        0.0478394506
 N          2.2162909826        1.7955299256        0.0004192083
 C          1.1034225630        0.9968480798       -0.0737614109
 C          1.0520518535       -0.1039108404       -0.9193165971
 N          0.0002596555       -0.8856502103       -1.0080628499
 C         -1.0777563444       -0.6018810359       -0.2130410782
 N         -2.0863422308       -1.5320533118       -0.1470202607
 C         -1.8829111906       -2.9046063828       -0.1406066064
 C         -0.7009548277       -3.6146795214       -0.2765272505
 C         -0.7699940294       -4.9953851757       -0.2259074449
 C         -1.9838895300       -5.6526681585       -0.0343135254
 C         -3.1643453632       -4.9478767590        0.1058631856
 C         -3.1210673946       -3.5602995942        0.0570405573
 C         -4.1218491493       -2.5387869941        0.1613864673
 C         -5.5046033612       -2.5995207517        0.3290144918
 C         -6.2449119191       -1.4382808749        0.3374002746
 C         -5.5943775721       -0.2132827102        0.1629924534
 C         -6.0540757933        1.1436782034        0.0762937295
 C         -7.2960890672        1.7642353267        0.1506317055
 C         -7.3511306752        3.1371732147        0.0142517781
 C         -6.1988756630        3.8910103740       -0.1932832251
 C         -4.9508534594        3.2952866898       -0.2714301834
 C         -4.8982664278        1.9217963018       -0.1344425113
 O         -3.7768925581        1.1458162811       -0.1760394494
 C         -4.1945478605       -0.1376523837        0.0026650443
 C         -3.4390820844       -1.3000410286        0.0213667254
 C         -1.0529169392        0.5390736908        0.5806153360
 N         -0.0075356507        1.3351196051        0.6557302029
 C          3.5262971845        1.3551788750       -0.0452407018
 H          5.2381915868       -5.3005962820        0.3105937491
 H          7.4825726235       -4.3338975396        0.1886661861
 H          7.8062778789       -1.8886654825        0.0318982244
 H          3.2242553622       -3.8482221851        0.2823151306
 H          7.3973341208        0.8842427255       -0.0934466729
 H          6.4324567369        3.1694067365       -0.1123478327
 H          4.8485135280        5.3620662903        0.0010942265
 H          2.9521299673        6.9388863757        0.1257070908
 H          0.6435991205        6.1265709778        0.2077896979
 H          0.1516181069        3.6944058694        0.1572305358
 H          1.8560579726       -0.2981880195       -1.6128805333
 H          0.2360822306       -3.1019514846       -0.4243038081
 H          0.1340257086       -5.5757607216       -0.3326927551
 H         -1.9982802206       -6.7317047164        0.0051778316
 H         -4.1026354193       -5.4612856675        0.2498722880
 H         -5.9856113476       -3.5588699477        0.4397885804
 H         -7.3159189961       -1.4620544237        0.4604804342
 H         -8.1904076813        1.1822681156        0.3112951689
 H         -8.3052583248        3.6398493332        0.0687863301
 H         -6.2791775470        4.9624654353       -0.2957285102
 H         -4.0539275948        3.8712810994       -0.4327764308
 H         -1.8653097053        0.7550625326        1.2567919698
  68
  -116.362968401500       0.169703578990962      !
 C          5.6060937281       -4.0911848812        0.7540495966
 C          6.8551795288       -3.4860262854        0.6427196068
 C          6.9789271746       -2.1301722582        0.4113060525
 C          5.8190798460       -1.3731305753        0.2904043829
 C          4.5630892123       -2.0022065247        0.4073605958
 C          4.4366094608       -3.3581633695        0.6382444102
 O          3.5425731434       -1.1079903069        0.2652065561
 C          4.1269507304        0.1041644532        0.0634161703
 C          5.5346434823        0.0166088916        0.0659454470
 C          6.3330748726        1.1524211193       -0.1002139600
 C          5.7340593690        2.3854900415       -0.2419063631
 C          4.3432327598        2.4871896302       -0.2289673871
 C          3.4502477084        3.6099424851       -0.2790479832
 C          3.6411778085        4.9810629373       -0.3918841869
 C          2.5312639402        5.8050969435       -0.4055697563
 C          1.2424434029        5.2847782626       -0.3031568430
 C          1.0252567519        3.9231782200       -0.1895703329
 C          2.1354396681        3.0955534288       -0.1755611547
 N          2.1904924445        1.7146714244       -0.0863318481
 C          1.1107248499        0.8647627764       -0.0867428107
 C          1.0728852699       -0.2644616916       -0.8937146040
 N          0.0157138871       -1.0405190058       -0.9841840290
 C         -1.0769307957       -0.7307231368       -0.2147116781
 N         -2.1300198001       -1.6103741344       -0.2153641411
 C         -2.0053180985       -2.9871602281       -0.3427212332
 C         -0.8667094378       -3.7495558448       -0.5476964840
 C         -1.0176132365       -5.1213707291       -0.6443554710
 C         -2.2695716569       -5.7221438927       -0.5263281448
 C         -3.4068752497       -4.9666715878       -0.3141730957
 C         -3.2809285917       -3.5865983232       -0.2168326809
 C         -4.2223808958       -2.5257744021       -0.0119133283
 C         -5.6066667849       -2.5300935104        0.1545954560
 C         -6.2841294384       -1.3387984689        0.2862381956
 C         -5.5682289135       -0.1392928306        0.2323710778
 C         -5.9556635212        1.2410756777        0.2980632552
 C         -7.1605252877        1.9149523253        0.4645841712
 C         -7.1407533005        3.2954391295        0.4873797019
 C         -5.9512086162        4.0056413115        0.3466342757
 C         -4.7393403423        3.3567011090        0.1770308614
 C         -4.7620206166        1.9758587874        0.1556456319
 O         -3.6851785588        1.1510708965        0.0130669119
 C         -4.1666576715       -0.1218578194        0.0658112293
 C         -3.4715402742       -1.3183983704       -0.0306887395
 C         -1.0279046444        0.3893855397        0.6062000811
 N          0.0163580440        1.1873624514        0.6689233968
 C          3.5190243518        1.3380342749       -0.1025530431
 H          5.5468247550       -5.1533396247        0.9365293342
 H          7.7431872416       -4.0920926359        0.7429321555
 H          7.9484751263       -1.6639961726        0.3281581073
 H          3.4649680898       -3.8174661619        0.7249351820
 H          7.4071467555        1.0550948660       -0.0972141736
 H          6.3328725848        3.2767642467       -0.3469433050
 H          4.6367069924        5.3911830949       -0.4661886343
 H          2.6617688526        6.8731102663       -0.4973330498
 H          0.3983994881        5.9575676428       -0.3164076632
 H          0.0316255169        3.5122120705       -0.1075118372
 H          1.8902288074       -0.4840803979       -1.5640233685
 H          0.1004022531       -3.2816762937       -0.6378766912
 H         -0.1479760502       -5.7392910143       -0.8093072137
 H         -2.3482120050       -6.7964512481       -0.6024763660
 H         -4.3755399225       -5.4347631468       -0.2284189535
 H         -6.1374420265       -3.4691977635        0.1689820405
 H         -7.3545294538       -1.3175221452        0.4152751766
 H         -8.0837264839        1.3675098205        0.5754329866
 H         -8.0645074544        3.8389582799        0.6187246058
 H         -5.9728653520        5.0844773802        0.3717944760
 H         -3.8133319314        3.8980997990        0.0686833700
 H         -1.8215399396        0.5919473118        1.3074171042
  68
  -116.362731742800       0.132108327193720      !
 C          5.8603561960       -3.9821099171        0.8869832054
 C          7.0783442772       -3.3202320817        0.7545527557
 C          7.1348017624       -1.9694082792        0.4735304406
 C          5.9388560118       -1.2758526575        0.3274393803
 C          4.7148982631       -1.9605401444        0.4692187296
 C          4.6560664393       -3.3126620946        0.7461307685
 O          3.6520509315       -1.1209585500        0.3040178822
 C          4.1771434986        0.1115479562        0.0649746081
 C          5.5874678532        0.0905030227        0.0597925757
 C          6.3321952713        1.2552815902       -0.1489086619
 C          5.6757286244        2.4538708744       -0.3255545186
 C          4.2819841441        2.4914912730       -0.3001447869
 C          3.3403661824        3.5721183141       -0.3744322893
 C          3.4697846311        4.9455377716       -0.5355814699
 C          2.3247717012        5.7195777025       -0.5628463168
 C          1.0614600516        5.1471020776       -0.4266840404
 C          0.9057855476        3.7822770848       -0.2635796371
 C          2.0514502359        3.0044672547       -0.2352254967
 N          2.1682760745        1.6308652117       -0.1006506759
 C          1.1150161801        0.7485869076       -0.0446685668
 C          1.0747748060       -0.3985693042       -0.8262258327
 N          0.0122235608       -1.1694118317       -0.9047905579
 C         -1.0856561762       -0.8314411180       -0.1518224862
 N         -2.1718471931       -1.6680913167       -0.1899015981
 C         -2.1041369035       -3.0434750881       -0.3642427452
 C         -0.9933493572       -3.8503896660       -0.5504624345
 C         -1.2017736230       -5.2094622848       -0.7039740604
 C         -2.4834866797       -5.7551069027       -0.6606544080
 C         -3.5936015171       -4.9555147552       -0.4671066246
 C         -3.4094669936       -3.5873041417       -0.3122776475
 C         -4.3098912898       -2.4924283363       -0.1035707909
 C         -5.6988546616       -2.4411314205        0.0067964244
 C         -6.3287015869       -1.2272888901        0.1645027316
 C         -5.5588315361       -0.0609345807        0.1958900387
 C         -5.8882142000        1.3302720813        0.3218038909
 C         -7.0678340634        2.0486559500        0.4835160884
 C         -6.9878605329        3.4230712790        0.5901708052
 C         -5.7634519017        4.0842823591        0.5367058375
 C         -4.5758513672        3.3908774224        0.3712270591
 C         -4.6590734086        2.0162508625        0.2652365250
 O         -3.6149767229        1.1518183417        0.1150210814
 C         -4.1520750220       -0.0995626069        0.0831203210
 C         -3.5059534595       -1.3208759101       -0.0433326733
 C         -1.0142548386        0.2786041314        0.6805526470
 N          0.0365758837        1.0676145152        0.7335351194
 C          3.5112176057        1.3113983661       -0.1267724745
 H          5.8536590739       -5.0387935331        1.1070285373
 H          7.9951408787       -3.8776986465        0.8755330838
 H          8.0800157783       -1.4588218767        0.3719942282
 H          3.7086670825       -3.8163579847        0.8520733028
 H          7.4095926899        1.2069101070       -0.1528821898
 H          6.2312021567        3.3680138019       -0.4666075531
 H          4.4454278929        5.3955039363       -0.6383656455
 H          2.4068785621        6.7884093685       -0.6927652984
 H          0.1883464705        5.7812647222       -0.4533812634
 H         -0.0685022817        3.3327114386       -0.1560320454
 H          1.8925333976       -0.6373498562       -1.4893570022
 H         -0.0031184739       -3.4254509211       -0.5825333957
 H         -0.3546237066       -5.8610697229       -0.8554002640
 H         -2.6071744526       -6.8212506798       -0.7798263603
 H         -4.5852210302       -5.3805502723       -0.4384069065
 H         -6.2697326017       -3.3553592558       -0.0398562580
 H         -7.4015519014       -1.1626063639        0.2520342261
 H         -8.0179548719        1.5392132746        0.5284346176
 H         -7.8911155354        4.0003006787        0.7204577069
 H         -5.7382269752        5.1595098151        0.6277270945
 H         -3.6231316602        3.8939683458        0.3305475511
 H         -1.7974508082        0.4831168529        1.3926975752
  68
  -116.361218831800       2.664676169301404E-002 !
 C          4.8957289098       -4.3330117695        0.0814764762
 C          6.2128166788       -3.8822419611        0.0575532821
 C          6.5125164054       -2.5340363610        0.0315416522
 C          5.4611671238       -1.6239529343        0.0257914084
 C          4.1345671818       -2.0996916340        0.0529593558
 C          3.8314259973       -3.4465494399        0.0821364032
 O          3.2370976264       -1.0726665038        0.0365551584
 C          3.9707305337        0.0724705050       -0.0075528058
 C          5.3564246964       -0.1914949071       -0.0062883625
 C          6.2903488559        0.8497629201       -0.0129969498
 C          5.8501950287        2.1560219820        0.0044698065
 C          4.4822960032        2.4292814737        0.0096934379
 C          3.7304315236        3.6489748271        0.0976350074
 C          4.0870570534        4.9882765181        0.1893908157
 C          3.0844385687        5.9357115564        0.2806228812
 C          1.7396835757        5.5690442903        0.2864670151
 C          1.3573428713        4.2423470686        0.1940790214
 C          2.3595002065        3.2915580326        0.1027068529
 N          2.2467994526        1.9155672434       -0.0000389935
 C          1.1001532680        1.1770338211       -0.1360954350
 C          1.0372505638        0.1099590342       -1.0242316185
 N         -0.0054069324       -0.6811279858       -1.1112877606
 C         -1.0571811708       -0.4451280244       -0.2691502113
 N         -2.0062226367       -1.4319108471       -0.1444056573
 C         -1.7113108325       -2.7864325711       -0.0885440899
 C         -0.4861463173       -3.4206620755       -0.2183985100
 C         -0.4606451935       -4.7992919361       -0.1084046807
 C         -1.6238799002       -5.5274408491        0.1341672429
 C         -2.8470396399       -4.8981143399        0.2671799737
 C         -2.8990599104       -3.5141239957        0.1593769956
 C         -3.9642732142       -2.5572488601        0.2408606335
 C         -5.3386373797       -2.7002478526        0.4265613871
 C         -6.1530735065       -1.5899019449        0.3945248671
 C         -5.5851527970       -0.3327051905        0.1675195524
 C         -6.1314816263        0.9874281518        0.0290417776
 C         -7.4115514214        1.5275405263        0.0778190350
 C         -7.5563507007        2.8867134209       -0.1176246050
 C         -6.4553136782        3.7050958542       -0.3565758764
 C         -5.1707469311        3.1899814920       -0.4097131559
 C         -5.0283844829        1.8296483273       -0.2162784436
 O         -3.8591480697        1.1269167860       -0.2317710383
 C         -4.1943176837       -0.1728033128       -0.0052461522
 C         -3.3665247012       -1.2832288729        0.0432046591
 C         -1.0504898129        0.7014560278        0.5185070199
 N         -0.0164649042        1.5128507774        0.5886540501
 C          3.5229455669        1.3836029530       -0.0317569630
 H          4.6986376417       -5.3941110236        0.0997170197
 H          7.0146562581       -4.6054050052        0.0602896294
 H          7.5351742781       -2.1903107367        0.0144104725
 H          2.8076668576       -3.7840084715        0.1047890379
 H          7.3443355377        0.6209399665       -0.0134377571
 H          6.5569811212        2.9708990285        0.0262490577
 H          5.1263918098        5.2791565772        0.1926853647
 H          3.3449095436        6.9813754528        0.3509469451
 H          0.9835695446        6.3356506181        0.3617583949
 H          0.3201900769        3.9473607102        0.2006739439
 H          1.8273341914       -0.0483027262       -1.7432023051
 H          0.4110566395       -2.8521477759       -0.4052565783
 H          0.4779467108       -5.3237919967       -0.2082447360
 H         -1.5641161667       -6.6022377766        0.2197179639
 H         -3.7455858568       -5.4668305668        0.4513584773
 H         -5.7555286446       -3.6833134664        0.5805629969
 H         -7.2195975644       -1.6785761931        0.5272021324
 H         -8.2660702601        0.8947798901        0.2614356330
 H         -8.5417563185        3.3270947762       -0.0867387022
 H         -6.6053770312        4.7635961321       -0.5051055546
 H         -4.3132166984        3.8163375345       -0.5957922259
 H         -1.8642114618        0.9063613742        1.1969192841
