  68
       -116.75076172
 C          5.8427062805       -4.0654799067        0.1685713417
 C          7.0580057268       -3.3967550305        0.0458156358
 C          7.1143296257       -2.0204215825       -0.0517654724
 C          5.9205470092       -1.3081974928       -0.0249497433
 C          4.7001182731       -2.0011663082        0.1027702610
 C          4.6408935982       -3.3777265398        0.1996984050
 O          3.6394765781       -1.1434126995        0.1101559177
 C          4.1604352829        0.1085354793       -0.0115209753
 C          5.5686360868        0.0816829359       -0.0970728204
 C          6.3155781285        1.2587238819       -0.2031880916
 C          5.6635857342        2.4721331088       -0.2004955607
 C          4.2729901983        2.5121977272       -0.1059006955
 C          3.3448217942        3.6018744976       -0.0175370325
 C          3.4909534261        4.9832584372       -0.0161869905
 C          2.3590590937        5.7686532718        0.0942570490
 C          1.0926171146        5.1978475806        0.2069683337
 C          0.9209459066        3.8250327100        0.2068077922
 C          2.0535005178        3.0346688483        0.1000937204
 N          2.1557527794        1.6520477901        0.0717267342
 C          1.0931041958        0.7830187806        0.0789377781
 C          1.0481348802       -0.3449277929       -0.7308020811
 N         -0.0027480812       -1.1323015264       -0.8021246491
 C         -1.0963444320       -0.8101064559       -0.0416463229
 N         -2.1657469398       -1.6710131100       -0.0419529952
 C         -2.0780557514       -3.0543593884       -0.0604367108
 C         -0.9523840933       -3.8567003750       -0.1482288781
 C         -1.1383550981       -5.2275270693       -0.1410283237
 C         -2.4119938794       -5.7841978467       -0.0397086070
 C         -3.5370804719       -4.9865944908        0.0514377951
 C         -3.3767856124       -3.6068901111        0.0451847224
 C         -4.2943052572       -2.5065980171        0.1143143000
 C         -5.6855237196       -2.4492801970        0.1894867184
 C         -6.3230941437       -1.2282601557        0.1730421655
 C         -5.5613118119       -0.0606817971        0.0680704756
 C         -5.8951507850        1.3327329423       -0.0218872142
 C         -7.0803918667        2.0597684300       -0.0202877319
 C         -7.0058262958        3.4342779473       -0.1306161224
 C         -5.7807915227        4.0869630997       -0.2410864084
 C         -4.5870937704        3.3843566905       -0.2470995525
 C         -4.6645988614        2.0096781720       -0.1376825788
 O         -3.6143555194        1.1392659105       -0.1214033529
 C         -4.1524931160       -0.1048944500        0.0033750186
 C         -3.5027075151       -1.3286053290        0.0473368484
 C         -1.0507957514        0.3164964980        0.7696748262
 N          0.0013017437        1.1017442092        0.8435400388
 C          3.4953665612        1.3247226153       -0.0368154904
 H          5.8361313785       -5.1423261464        0.2411045790
 H          7.9730481283       -3.9694987474        0.0272320541
 H          8.0576402660       -1.5051483049       -0.1464535105
 H          3.6952692597       -3.8869400695        0.2946813834
 H          7.3906887220        1.2053051991       -0.2691297980
 H          6.2199134004        3.3945603980       -0.2581197389
 H          4.4699387722        5.4301314861       -0.0980695858
 H          2.4539031164        6.8444376983        0.0939310384
 H          0.2292036117        5.8400316370        0.2921808466
 H         -0.0561711532        3.3776701387        0.2946647710
 H          1.8521980783       -0.5586756806       -1.4178520573
 H          0.0301239775       -3.4195605593       -0.2273584852
 H         -0.2808041601       -5.8793599343       -0.2111844217
 H         -2.5180134025       -6.8588500806       -0.0332852226
 H         -4.5215050031       -5.4229816669        0.1240458767
 H         -6.2538445617       -3.3646636586        0.2463403216
 H         -7.3983479372       -1.1620385356        0.2228048594
 H         -8.0313256756        1.5569941986        0.0646406754
 H         -7.9141467307        4.0183505456       -0.1323739438
 H         -5.7600309791        5.1628140769       -0.3243488185
 H         -3.6339869981        3.8809076537       -0.3332905570
 H         -1.8561778465        0.5306109982        1.4552658320
