103
 energy: -159.441407769534 gnorm: 0.000069497009 xtb: 6.7.1 (edcfbbe)
C            9.26399037332034       -4.56785643456926        1.95912329986002
C            8.10899081965809       -4.92252200998240        1.28064695835622
C            7.35477063388296       -3.96308781245588        0.63287357279170
C            7.74335872444060       -2.62358677225281        0.66406640806050
N            6.98011982429675       -1.64588109074697        0.01231406034593
C            7.61839040981045       -0.58824084051548       -0.64840506254838
C            7.07314298496573        0.69556002307104       -0.62011242451485
C            7.70511037724894        1.73527239294833       -1.27485176537150
C            8.89059128741536        1.51771976008112       -1.95848047147432
C            9.43876982411509        0.24540579944239       -1.98617171625946
C            8.80949243030409       -0.80256211928957       -1.34201661003090
C            5.58555502518952       -1.73441812274876        0.01062015081859
C            4.90115875885475       -2.20619003051226        1.13212157222251
C            3.52598042618476       -2.30630278551851        1.12284626004396
C            2.78525293895525       -1.94374859114399       -0.00163681623663
C            1.32319835828968       -2.07758169966637       -0.01905720108693
C            0.55746293103993       -1.75113602496154        1.09976230628976
C           -0.81809711844306       -1.86564327369497        1.07927138714078
C           -1.47077724567223       -2.31341801285592       -0.06813280167707
C           -2.91875086955931       -2.44110281478487       -0.14939508443973
N           -3.52385802674231       -3.45826665760384       -0.71067079667365
C           -4.85713875218716       -3.21435830732146       -0.58468090202409
C           -5.93805754542346       -4.04842310918507       -0.98577483055533
C           -5.71315582342522       -5.29305768256853       -1.58483406498734
C           -6.76916180333814       -6.10152795457552       -1.92471577865891
C           -8.06978448710113       -5.67446174939390       -1.66221418417045
C           -8.30331014814111       -4.44979759130981       -1.08104325751010
C           -7.25111638999120       -3.58914103139305       -0.73058967795296
C           -7.46679941573145       -2.27211980425340       -0.15562642091470
C           -8.75584669692796       -1.74612272369073        0.01554343077143
C           -8.96834519679049       -0.48002123491288        0.50803934810232
C           -7.88697365621248        0.33225208069626        0.83577058211844
C           -6.60865106338579       -0.14835066024183        0.69244023765407
C           -6.37084117052716       -1.44903484382648        0.22447231978123
C           -5.06669777258127       -1.99562538564671        0.05752540943701
N           -3.80872426486417       -1.51358507403255        0.34523805662719
C           -3.43323658384458       -0.34651675691577        1.04135591854836
C           -3.85497959863038       -0.14619208281382        2.35232185966911
C           -3.42887779751171        0.97820779566894        3.03699120798165
C           -2.57697365216945        1.88618666237190        2.43308992293969
C           -2.14361989829429        1.68734959549361        1.12364488641236
C           -1.17364724796481        2.60093942667752        0.49539850633251
C            0.02177395170121        2.06220749421140        0.02662765790864
C            1.00935846079661        2.86421226985351       -0.50616137387182
C            0.83204877247641        4.24627929625095       -0.59686528958261
C            1.84088760495422        5.10653020333283       -1.12154178619673
C            1.64942826112956        6.44321486030181       -1.20775105529538
C            0.42617850299286        7.04243534991609       -0.78442096584977
C            0.20499421823294        8.41834701205532       -0.86974895326951
C           -0.99481656394776        8.96891333157304       -0.45662653237414
C           -1.99964021788580        8.16485643585929        0.04993014401098
C           -1.82103799371187        6.78440005206454        0.15661228021363
C           -2.83850712469004        5.92192194981813        0.65938712326414
C           -2.64217901244608        4.58727276302609        0.76655342026380
C           -1.40601026062274        3.98287677838923        0.38673090948768
C           -0.39123840101001        4.81153712590997       -0.15749591996966
C           -0.59497614552215        6.21015603548417       -0.26081293940094
C           -2.58367083206511        0.56524995321935        0.43045240323671
C           -0.70699437159967       -2.67412860017521       -1.17812856334681
C            0.66609227121452       -2.55050766667442       -1.15549996571079
C            3.47328004460416       -1.46326429765335       -1.11564704978686
C            4.84805037380608       -1.35778865169140       -1.11315164786020
C            8.90487477056611       -2.27166669013490        1.35167842928345
C            9.65795048800148       -3.23970424840519        1.98809633886046
H            9.85301828792867       -5.32100694995231        2.46067398745364
H            7.79678220270536       -5.95638860719470        1.24712295858692
H            6.46057273216610       -4.24495053749551        0.09601647085081
H            6.15461656091441        0.87073202901598       -0.07890575963981
H            7.27331570670979        2.72515337763762       -1.24216339978702
H            9.38390969019040        2.33337928144656       -2.46560153781419
H           10.35994018136328        0.06436963948822       -2.52090821315657
H            9.23514556741753       -1.79508220327522       -1.37335647662592
H            5.45852228654784       -2.49591933013743        2.01106828124284
H            3.01834834480675       -2.69089765606972        1.99521375187170
H            1.04445491764677       -1.38480516912854        1.99180814542479
H           -1.38409451143528       -1.62000662040594        1.96572415061761
H           -4.69055536057938       -5.59169544081791       -1.75922914583272
H           -6.59796414772778       -7.06354133917456       -2.38532149051118
H           -8.90409362029647       -6.31165154998017       -1.91839311087143
H           -9.32592739798747       -4.16304280308815       -0.89377578464194
H           -9.61560972205218       -2.33761322457551       -0.25463295886587
H           -9.97645532338773       -0.11007218033026        0.62526126599073
H           -8.05058872979850        1.33734687291962        1.19585698120566
H           -5.77187502097314        0.49019060132091        0.92685980274622
H           -4.50612532361392       -0.86939781706783        2.82136933235575
H           -3.75233815660975        1.13644654645971        4.05492066694759
H           -2.22368790456854        2.74480368871231        2.98428129046494
H            0.18049078470914        0.99593599235936        0.10897697838306
H            1.93485362101543        2.42409380134927       -0.84900204426806
H            2.76873660748320        4.65860174863167       -1.44874047260850
H            2.42089928852216        7.08781848777111       -1.60526160087815
H            0.98471366326720        9.05344641582434       -1.26589822091574
H           -1.14886165841431       10.03603817456623       -0.53135765392373
H           -2.93610799929476        8.60124739362499        0.36744960300360
H           -3.78205714117575        6.36287029322046        0.94924294056247
H           -3.43350490108908        3.95022007762447        1.13311363579787
H           -2.26418293101735        0.39868143638449       -0.58800169273446
H           -1.21273936544772       -3.04779498881113       -2.05575477085706
H            1.24165038168836       -2.84060355567332       -2.02208038563515
H            2.92147111580493       -1.15972069000281       -1.99332526778071
H            5.36374830850902       -0.98830610792766       -1.98764209713662
H            9.20993284038781       -1.23566264648514        1.38395639637639
H           10.55464144867187       -2.95290472812128        2.51822626868410
