103
 energy: -159.440162218906 gnorm: 0.000040570661 xtb: 6.7.1 (edcfbbe)
C           11.34146869997679       -1.15182690050206        1.56384676779324
C           10.36832348748028       -1.79593524143286        0.81665158843483
C            9.29933476121946       -1.08876125102763        0.30052134862441
C            9.18394259759998        0.28137459564254        0.53529723039941
N            8.10052766120757        1.00441409493720        0.01740520671686
C            8.30538274810241        2.30007575703896       -0.47551534435163
C            7.35337024683608        3.29789021315238       -0.26584179192432
C            7.56055749330105        4.57246552360645       -0.75752078088597
C            8.71945094559477        4.87715343462596       -1.45340880709542
C            9.67092032589779        3.89113456518773       -1.65978575695842
C            9.46799165894941        2.61104427591005       -1.18084491277143
C            6.82540298579997        0.43603977034921       -0.00732304773113
C            6.40578940882709       -0.41836518804412        1.01428545573053
C            5.14998432716958       -0.98598315047808        0.98150669390058
C            4.26007200531235       -0.70843765092852       -0.05599263418182
C            2.92173000170225       -1.30999952140723       -0.08135471024451
C            1.80937912570107       -0.56646906327864       -0.47337762432154
C            0.54763880925278       -1.12528650381690       -0.48698622878388
C            0.36025167277157       -2.45396268979018       -0.10938853170668
C           -0.94182333930816       -3.10068517085015       -0.11602411188781
N           -1.11820906330521       -4.35201825997076       -0.46589878666254
C           -2.45313217825017       -4.58595406714602       -0.35402155401941
C           -3.15250277271964       -5.79034836642868       -0.64573118633919
C           -2.48134281779511       -6.92286742364924       -1.12061435812373
C           -3.17606250383975       -8.06939675058657       -1.41539113353462
C           -4.55848436874388       -8.09540510672014       -1.23906859699577
C           -5.22808296469294       -6.98939699755481       -0.76969271885957
C           -4.55307909255464       -5.80009216762108       -0.45196789829181
C           -5.22793051035525       -4.62434297653108        0.07138008312495
C           -6.60765147707213       -4.62143633512255        0.32461666386875
C           -7.25193516734374       -3.52808131456475        0.85371477009107
C           -6.53175287056499       -2.38077192069973        1.17171376365611
C           -5.17990617916781       -2.34096924273463        0.93459205682326
C           -4.50722988680572       -3.43410408020328        0.36866264439009
C           -3.10982934249347       -3.44078880980564        0.09353138479806
N           -2.12429362438602       -2.48728298376606        0.23093977513316
C           -2.23701713311195       -1.15740787196072        0.69148195812394
C           -1.61448425149787       -0.79005498475341        1.87809052429447
C           -1.70859293445477        0.51923340772305        2.31757601246240
C           -2.42969964846094        1.45033733263116        1.59281649988554
C           -3.06178260521675        1.08803783360612        0.40405955475620
C           -3.81928480656946        2.07806957952407       -0.38338708048429
C           -3.43235584769033        2.33014925625241       -1.69586382276619
C           -4.06959431058118        3.28444935668810       -2.46175897764763
C           -5.13298459249284        4.02243321457322       -1.93926338126243
C           -5.79981795193525        5.02990416347463       -2.69661841367971
C           -6.83213739303759        5.73228341729573       -2.17554862735282
C           -7.29777689860828        5.48579318493694       -0.84995346968037
C           -8.36330088563786        6.19599423645298       -0.29358222148146
C           -8.79724273502217        5.92834927144825        0.99226766891818
C           -8.18346686399769        4.94899869598952        1.75176400572755
C           -7.11095873796566        4.21773311761747        1.23801699994832
C           -6.45955390704531        3.19408905193733        1.98608017003780
C           -5.41125629198131        2.50659453790747        1.47660998755791
C           -4.90910846464130        2.77494916760267        0.16745020584423
C           -5.56531297130656        3.75913940219132       -0.61544280212327
C           -6.65591874477220        4.48611107258215       -0.07651857007109
C           -2.94409862452462       -0.21961250530717       -0.05201422138005
C            1.47473999096855       -3.21022771517792        0.25680860387034
C            2.73170337378491       -2.64505190880617        0.27777839824183
C            4.68008417555377        0.15416547618813       -1.06830003616317
C            5.94193799763537        0.70920176097628       -1.05357201587096
C           10.16426373162723        0.92400201953792        1.29131579509843
C           11.23452102305349        0.21016525777390        1.79542601074465
H           12.17696012558580       -1.70734173080479        1.96276036831711
H           10.44641102569234       -2.85647880513899        0.62570032702261
H            8.54741288280079       -1.59161086961641       -0.29022603329556
H            6.45407631945671        3.06648552282892        0.28631632156426
H            6.81529783704101        5.33594480679298       -0.58697119034577
H            8.87950700565197        5.87525165373199       -1.83288965608790
H           10.57535100827580        4.11763860581874       -2.20571453867322
H           10.20726710933729        1.84188252003498       -1.35144242283149
H            7.07280300272238       -0.62954725089270        1.83735574080519
H            4.83987420716494       -1.63067319992440        1.79080356002401
H            1.93294220702076        0.46859509558847       -0.75632746415023
H           -0.29209664403972       -0.52857478280679       -0.80944287053239
H           -1.41137149857427       -6.85846301487020       -1.24886667023100
H           -2.66079346491699       -8.94441991801504       -1.78360677956081
H           -5.11108479838905       -8.99406260126974       -1.47340183027418
H           -6.29783472226397       -7.05655437483354       -0.65118570176602
H           -7.19331316610643       -5.50008521530877        0.10788038282114
H           -8.31674694828235       -3.56435687249194        1.03185418962173
H           -7.03047925591847       -1.52617041144242        1.60490816269105
H           -4.62338485583637       -1.45640148470701        1.19739697681629
H           -1.06228076958519       -1.52737533479551        2.44147094788646
H           -1.21948254794448        0.81058018043698        3.23477844648576
H           -2.49855158253572        2.47134187503294        1.93756915502418
H           -2.59951647305941        1.77955945775760       -2.11037882992549
H           -3.74204939616365        3.47180188668694       -3.47440795822104
H           -5.45538762407697        5.21866585776245       -3.70383554093831
H           -7.33002681527768        6.49616523442441       -2.75619431595245
H           -8.84959973146627        6.96178831399197       -0.88121096041741
H           -9.62405499739600        6.48798590827574        1.40596966429612
H           -8.53042677201294        4.74222289089410        2.75430996507383
H           -6.82871816835206        2.97539437692762        2.97843727717079
H           -4.94119092592192        1.72705032433804        2.05768378686114
H           -3.42333108630974       -0.51852225196264       -0.97381315848751
H            1.33016639423299       -4.24609977904825        0.52396633716399
H            3.58343452038630       -3.24818403134139        0.55603467594572
H            4.01962309237800        0.36475180149314       -1.89662967372361
H            6.25638032123787        1.35699729806595       -1.85890127538495
H           10.07854673946687        1.98418355672117        1.48083680825267
H           11.98589495065806        0.72018383759097        2.38078010348694
