  62
  -97.6043162300000       0.138471795618021      !
 C         -8.1049623340        2.9282789819        0.1099200237
 C         -8.3346177704        1.7584067870        0.8154384004
 C         -7.4120924824        0.7307198063        0.7863112393
 C         -6.2418465898        0.8584597820        0.0386570337
 N         -5.3056251805       -0.1818434046        0.0031433634
 C         -5.7441312864       -1.5107350058       -0.0259903361
 C         -5.0502475653       -2.5008943673        0.6693714212
 C         -5.4859576272       -3.8111505557        0.6340292774
 C         -6.6200693035       -4.1549909250       -0.0834720028
 C         -7.3161846189       -3.1743490892       -0.7711349851
 C         -6.8835930152       -1.8626975891       -0.7490345607
 C         -3.9410452999        0.1071466190       -0.0060123367
 C         -3.0479133617       -0.6874920435       -0.7272069666
 C         -1.7000730343       -0.4019543249       -0.7268356850
 C         -1.1944075994        0.6913231528       -0.0232978947
 C          0.2410614695        0.9907853908       -0.0312610966
 C          0.6866925777        2.3301031918       -0.0739912965
 C          2.0183047983        2.6363739351       -0.0852165271
 C          2.9842077735        1.6144314021       -0.0497106983
 N          4.2997277977        1.9447206059       -0.0607693246
 C          5.1292935598        0.9407598490       -0.0257476132
 C          4.6861718240       -0.4396801767        0.0215554695
 N          3.4289014380       -0.7764691431        0.0308064500
 C          2.5471025130        0.2577209156       -0.0059516762
 C          1.1738349265       -0.0242416672        0.0008843774
 C          5.8672968021       -1.2909766046        0.0499842538
 C          6.0968303838       -2.6427145718        0.0966394103
 C          7.4307297547       -3.0923675574        0.1104358638
 C          8.5057767079       -2.2365155534        0.0794840896
 C          8.3051582454       -0.8382359278        0.0318068910
 C          9.2820738590        0.1826387075       -0.0040194218
 C          8.9052158144        1.5036245848       -0.0481329395
 C          7.5584603369        1.9132767584       -0.0606068679
 C          6.5847844702        0.9472284725       -0.0272311562
 C          6.9747924489       -0.4118428852        0.0187370276
 C         -2.0922619538        1.4864470376        0.6886435796
 C         -3.4397784663        1.1982520193        0.7060338460
 C         -6.0181838359        2.0359590426       -0.6744507331
 C         -6.9429553018        3.0610711957       -0.6325681213
 H         -8.8263657866        3.7305137335        0.1382312608
 H         -9.2355248322        1.6477883828        1.4007442027
 H         -7.5886680864       -0.1772482927        1.3440278219
 H         -4.1720825229       -2.2333811550        1.2383681854
 H         -4.9404482539       -4.5675949052        1.1787651327
 H         -6.9590264519       -5.1793966618       -0.1062116571
 H         -8.1987147364       -3.4335519021       -1.3372162424
 H         -7.4225736150       -1.1014410834       -1.2937085380
 H         -3.4234749104       -1.5262916761       -1.2943532735
 H         -1.0286631879       -1.0158699035       -1.3081735296
 H         -0.0463730358        3.1218868356       -0.1211133445
 H          2.3633319169        3.6581336216       -0.1249018093
 H          0.8743674948       -1.0594042740        0.0550633550
 H          5.2820071706       -3.3496411507        0.1235437471
 H          7.6095557736       -4.1576037877        0.1483410175
 H          9.5126947874       -2.6285378818        0.0919921600
 H         10.3292998082       -0.0836748178        0.0035386424
 H          9.6704489077        2.2662914687       -0.0745929052
 H          7.3074091497        2.9620109265       -0.0951518418
 H         -1.7245743868        2.3209062470        1.2672039706
 H         -4.1170222450        1.8124646735        1.2809290243
 H         -5.1175936218        2.1370921685       -1.2621286455
 H         -6.7582432558        3.9668915069       -1.1910286998
  62
  -97.6043096700000       0.137513886535748      !
 C         -8.1154534861        2.9122261333       -0.2603814840
 C         -6.9652250411        3.0690337840        0.4956273475
 C         -6.0350025254        2.0509388479        0.5743771839
 C         -6.2418366117        0.8560647653       -0.1143175095
 N         -5.3035640847       -0.1804028588       -0.0380526409
 C         -5.7443673716       -1.5080037832        0.0172220288
 C         -5.0490652276       -2.5152196033       -0.6511379402
 C         -5.4916180953       -3.8224389253       -0.5922973998
 C         -6.6331835166       -4.1460437979        0.1225819149
 C         -7.3298545993       -3.1484579669        0.7848458574
 C         -6.8907628178       -1.8397726615        0.7389086949
 C         -3.9395649028        0.1089275175       -0.0215779202
 C         -3.4308723862        1.1862092734       -0.7493677198
 C         -2.0833323193        1.4737205004       -0.7253004793
 C         -1.1921418395        0.6921340793        0.0098540439
 C          0.2434321656        0.9911733605        0.0237276398
 C          0.6892860511        2.3311669742        0.0375650533
 C          2.0208531299        2.6377353809        0.0509234401
 C          2.9868582835        1.6153774490        0.0468365029
 N          4.3022946214        1.9460215800        0.0562433441
 C          5.1320455884        0.9416139139        0.0495987282
 C          4.6891224219       -0.4396935476        0.0342691727
 N          3.4318932911       -0.7767641125        0.0272119893
 C          2.5497838915        0.2579299593        0.0338480128
 C          1.1765175248       -0.0242204402        0.0240417129
 C          5.8704778500       -1.2911934565        0.0296051194
 C          6.1003202808       -2.6435423165        0.0156108609
 C          7.4343193464       -3.0931080215        0.0136962341
 C          8.5091935306       -2.2366345383        0.0254849715
 C          8.3082798922       -0.8377970807        0.0404434305
 C          9.2850457333        0.1836616731        0.0538720860
 C          8.9079207139        1.5052196838        0.0668880537
 C          7.5611033756        1.9149002658        0.0674096344
 C          6.5875431362        0.9483113185        0.0546630818
 C          6.9778136015       -0.4114163621        0.0417628741
 C         -1.7052819541       -0.3870799301        0.7296082651
 C         -3.0532487533       -0.6720622467        0.7228012528
 C         -7.3994786144        0.7047878859       -0.8770996556
 C         -8.3273978601        1.7257734737       -0.9434209450
 H         -8.8415503805        3.7087314825       -0.3166313402
 H         -6.7947561933        3.9880852310        1.0367095426
 H         -5.1440221742        2.1705325912        1.1731467205
 H         -4.1650197356       -2.2636665081       -1.2182566063
 H         -4.9453407040       -4.5925909345       -1.1165884030
 H         -6.9775408626       -5.1680556891        0.1632998143
 H         -8.2178728139       -3.3919132506        1.3493104969
 H         -7.4302262089       -1.0645349143        1.2629076394
 H         -4.1023384582        1.7905396032       -1.3411386666
 H         -1.7101934724        2.2975046865       -1.3155962515
 H         -0.0436612642        3.1241514320        0.0615008978
 H          2.3655949964        3.6601922978        0.0672858922
 H          0.8775424969       -1.0605807634       -0.0071287904
 H          5.2856891084       -3.3510014903        0.0058180377
 H          7.6134008609       -4.1587378691        0.0022668062
 H          9.5161799308       -2.6286600743        0.0233514159
 H         10.3323238677       -0.0825973940        0.0538197764
 H          9.6730158203        2.2683458579        0.0771653029
 H          7.3100109535        2.9641644073        0.0774717921
 H         -1.0399317903       -0.9902912406        1.3286602244
 H         -3.4343403236       -1.5000843103        1.3018649994
 H         -7.5621477937       -0.2165446707       -1.4168487556
 H         -9.2185175767        1.5965588256       -1.5398065302
  62
  -97.6043012300000       0.136291195553496      !
 C         -8.1075442684        2.9355963498        0.1109352326
 C         -6.9335694290        3.0785634424       -0.6102419595
 C         -6.0090594544        2.0532918489       -0.6533178118
 C         -6.2440176412        0.8650764016        0.0383679820
 N         -5.3095123713       -0.1756039358        0.0006111374
 C         -5.7501862531       -1.5047441840       -0.0276751320
 C         -6.8722772667       -1.8602049347       -0.7754055399
 C         -7.3050520390       -3.1715655644       -0.7990659622
 C         -6.6265735667       -4.1474531736       -0.0872515708
 C         -5.5103904042       -3.7997690170        0.6553385215
 C         -5.0739072562       -2.4896298784        0.6910687632
 C         -3.9434132129        0.1053733662       -0.0016071687
 C         -3.0539599511       -0.6956559468       -0.7205512787
 C         -1.7046736819       -0.4172727365       -0.7205487035
 C         -1.1939610012        0.6750115241       -0.0191563178
 C          0.2414881083        0.9741541403       -0.0329187614
 C          0.6836440628        2.3145374109       -0.0789505925
 C          2.0143530842        2.6241833978       -0.0931621786
 C          2.9825982938        1.6046765604       -0.0578553069
 N          4.2968322342        1.9389738461       -0.0675296454
 C          5.1293510727        0.9374674884       -0.0320055661
 C          4.6909449116       -0.4443386476        0.0128972979
 N          3.4345397258       -0.7849289049        0.0215410174
 C          2.5493275789        0.2464439366       -0.0142679932
 C          1.1766429222       -0.0388394140       -0.0039407826
 C          5.8754455508       -1.2911963265        0.0444060073
 C          6.1111389425       -2.6417617995        0.0900084747
 C          7.4470621681       -3.0855190597        0.1107973667
 C          8.5185266603       -2.2251972109        0.0880907743
 C          8.3117586532       -0.8279343338        0.0410999420
 C          9.2845391272        0.1972520569        0.0131998664
 C          8.9023762840        1.5165526281       -0.0325842263
 C          7.5538803983        1.9202160546       -0.0535376017
 C          6.5845186636        0.9498540057       -0.0264840234
 C          6.9796639513       -0.4076011712        0.0202791430
 C         -2.0874117042        1.4731783370        0.6949669158
 C         -3.4364085328        1.1921648858        0.7127205997
 C         -7.4263642443        0.7274510821        0.7651354358
 C         -8.3486938893        1.7552148652        0.7947278932
 H         -8.8290826330        3.7376641569        0.1397364359
 H         -6.7387854476        3.9928232107       -1.1513809710
 H         -5.0996124720        2.1628786101       -1.2254790604
 H         -7.3967069846       -1.1013015639       -1.3370993726
 H         -8.1734092378       -3.4346582827       -1.3844040133
 H         -6.9655483347       -5.1717847460       -0.1113231660
 H         -4.9795227500       -4.5525255912        1.2192329875
 H         -4.2088459386       -2.2184534506        1.2779711455
 H         -3.4340616155       -1.5339484184       -1.2854208994
 H         -1.0360801038       -1.0356630472       -1.3003662133
 H         -0.0513771108        3.1044999413       -0.1257355948
 H          2.3564290408        3.6469252832       -0.1346179191
 H          0.8792951150       -1.0746892891        0.0508402158
 H          5.2999586933       -3.3532062711        0.1108842710
 H          7.6300586560       -4.1500720244        0.1478322219
 H          9.5270888398       -2.6126134649        0.1066493828
 H         10.3327746104       -0.0648204933        0.0278133054
 H          9.6642723571        2.2828524602       -0.0540190755
 H          7.2982845441        2.9677972651       -0.0896251719
 H         -1.7153113359        2.3060965929        1.2729169694
 H         -4.1104355011        1.8105229868        1.2868807834
 H         -7.6126970619       -0.1880873024        1.3070405422
 H         -9.2587777068        1.6363809746        1.3637641488
  62
  -97.6042104000000       0.123801305208313      !
 C         -8.1337668121        2.8710323602       -0.4826837540
 C         -7.0201039967        3.0673772091        0.3173401562
 C         -6.0822874825        2.0647979411        0.4702903563
 C         -6.2434946891        0.8457926514       -0.1876352872
 N         -5.2948687801       -0.1729765912       -0.0394424745
 C         -5.7141443863       -1.5070533924        0.0273044912
 C         -4.9657223856       -2.5164638056       -0.5780304543
 C         -5.3816666809       -3.8314190483       -0.5036384760
 C         -6.5504144999       -4.1615295096        0.1628009164
 C         -7.3013642333       -3.1619925109        0.7594283641
 C         -6.8887440435       -1.8451010046        0.6987745325
 C         -3.9368387696        0.1378690331        0.0305298687
 C         -3.4105872567        1.2039118021       -0.7011541683
 C         -2.0666091988        1.5019358557       -0.6350507165
 C         -1.1971780126        0.7385465523        0.1431536175
 C          0.2398891713        1.0299942637        0.1710744835
 C          0.6956706206        2.3659048693        0.1967317340
 C          2.0301065248        2.6605697463        0.2001954910
 C          2.9866959794        1.6297606474        0.1645387950
 N          4.3048882916        1.9495110148        0.1447731968
 C          5.1254872268        0.9388613797        0.0940713590
 C          4.6703631123       -0.4382632008        0.0660007542
 N          3.4108944716       -0.7653024792        0.0943128928
 C          2.5383043130        0.2761939853        0.1425417641
 C          1.1627753323        0.0059886431        0.1544270131
 C          5.8429402192       -1.2989391606       -0.0028087202
 C          6.0593658699       -2.6524118085       -0.0604917589
 C          7.3879354145       -3.1126107366       -0.1286858177
 C          8.4701095906       -2.2653039614       -0.1392783995
 C          8.2828971952       -0.8656203789       -0.0804879324
 C          9.2685764254        0.1474121297       -0.0827961408
 C          8.9041930275        1.4712995065       -0.0226928005
 C          7.5622365592        1.8917645210        0.0419352737
 C          6.5802390268        0.9336330940        0.0459453181
 C          6.9575949809       -0.4285693772       -0.0138349305
 C         -1.7281413982       -0.3237456162        0.8742101300
 C         -3.0741398306       -0.6147875570        0.8300180832
 C         -7.3647314204        0.6545708194       -0.9946621863
 C         -8.3011755582        1.6601797441       -1.1345557461
 H         -8.8658018656        3.6557134607       -0.5972104277
 H         -6.8837155324        4.0061462820        0.8336963506
 H         -5.2202390060        2.2162012138        1.1030844202
 H         -4.0601576834       -2.2605525784       -1.1080119751
 H         -4.7925275934       -4.6026368731       -0.9775442031
 H         -6.8728815442       -5.1900406673        0.2181674293
 H         -8.2119417619       -3.4099134322        1.2847699683
 H         -7.4714576361       -1.0689576170        1.1728771620
 H         -4.0638057796        1.7892600195       -1.3312016890
 H         -1.6761204550        2.3154720638       -1.2284846158
 H         -0.0319259694        3.1634225904        0.2338049422
 H          2.3849876577        3.6794237308        0.2253519326
 H          0.8517945927       -1.0266107674        0.1176650512
 H          5.2382958243       -3.3524078977       -0.0552809564
 H          7.5566758185       -4.1790633227       -0.1752251231
 H          9.4724591589       -2.6653450768       -0.1938817354
 H         10.3124872307       -0.1271387560       -0.1329255155
 H          9.6758731511        2.2279031983       -0.0254545788
 H          7.3213880466        2.9425898019        0.0862368116
 H         -1.0785826271       -0.9101389355        1.5066980607
 H         -3.4713488120       -1.4302898824        1.4160519194
 H         -7.4923520772       -0.2854807523       -1.5110029930
 H         -9.1641982329        1.4992630513       -1.7635863992
  62
  -97.6041128700000       0.111661520852565      !
 C         -7.2494373074        2.2489420386       -2.8852213590
 C         -6.2385344398        2.7663343268       -2.0918690823
 C         -5.5979201628        1.9676271991       -1.1648935030
 C         -5.9569894444        0.6271811266       -1.0243268085
 N         -5.3091162922       -0.1866163551       -0.0881626324
 C         -6.0348269652       -1.1523730083        0.6185527225
 C         -5.4622219830       -2.3890341449        0.9156835925
 C         -6.1801299945       -3.3378627467        1.6171317166
 C         -7.4778997251       -3.0762786443        2.0252229160
 C         -8.0532077182       -1.8516472489        1.7279815744
 C         -7.3404678796       -0.8929594664        1.0344799177
 C         -3.9414623993       -0.0319180001        0.1449035822
 C         -3.0721384933        0.2846800099       -0.9003078355
 C         -1.7228593443        0.4382057586       -0.6656573164
 C         -1.1926721387        0.2865012642        0.6152516252
 C          0.2440442370        0.4567350616        0.8596705582
 C          0.6895456456        1.1038555471        2.0329683033
 C          2.0206879486        1.2823865315        2.2844010449
 C          2.9856012254        0.8155681613        1.3737187739
 N          4.3005983001        1.0047073693        1.6472114958
 C          5.1299615861        0.5429655593        0.7550216180
 C          4.6874261978       -0.1296662570       -0.4516121200
 N          3.4304810340       -0.3181043630       -0.7326792717
 C          2.5486525132        0.1586389843        0.1858001618
 C          1.1754000591       -0.0043689349       -0.0461632037
 C          5.8686734996       -0.5101685237       -1.2136707023
 C          6.0992051876       -1.1535102336       -2.4031825820
 C          7.4329417405       -1.3365696685       -2.8147284591
 C          8.5070173817       -0.8992035253       -2.0771670089
 C          8.3054880442       -0.2330787123       -0.8470648123
 C          9.2812987020        0.2813352174        0.0366073285
 C          8.9037638607        0.9061811504        1.2011020631
 C          7.5572824255        1.0693077492        1.5780172186
 C          6.5847810928        0.5815265061        0.7422275652
 C          6.9753127308       -0.0612910041       -0.4558780520
 C         -2.0655940637       -0.0306767737        1.6553256616
 C         -3.4156990462       -0.1900824409        1.4280387796
 C         -6.9727685400        0.1103837634       -1.8281436628
 C         -7.6133673069        0.9195460560       -2.7461951623
 H         -7.7499956594        2.8771230692       -3.6060526359
 H         -5.9516977700        3.8030834252       -2.1886740415
 H         -4.8171900971        2.3761313591       -0.5404052836
 H         -4.4540953574       -2.5988066380        0.5898221409
 H         -5.7251515992       -4.2920056459        1.8386966177
 H         -8.0368867008       -3.8214137789        2.5702958263
 H         -9.0626830428       -1.6368650120        2.0463510305
 H         -7.7877308432        0.0647704807        0.8122915922
 H         -3.4656099470        0.4062718540       -1.8986715024
 H         -1.0681929551        0.6945624072       -1.4849950569
 H         -0.0440223438        1.4828656162        2.7292263135
 H          2.3660500319        1.7835317503        3.1756046280
 H          0.8753919497       -0.5211757480       -0.9446520058
 H          5.2853666718       -1.5127643410       -3.0136981850
 H          7.6124769921       -1.8435155047       -3.7520371383
 H          9.5137668095       -1.0623963236       -2.4343032706
 H         10.3282833361        0.1795667773       -0.2106724317
 H          9.6681310940        1.2914159712        1.8607746976
 H          7.3054659136        1.5666012786        2.5018790585
 H         -1.6788038127       -0.1706812224        2.6538669096
 H         -4.0771249388       -0.4347554201        2.2460195432
 H         -7.2517021389       -0.9282664437       -1.7283614932
 H         -8.3967377522        0.5058723729       -3.3638970476
  62
  -97.6041073100000       0.111006482096008      !
 C         -7.2802617858        2.5090405578        2.5876357495
 C         -7.6363020899        1.1703331097        2.5785953346
 C         -6.9832331689        0.2780615777        1.7509625929
 C         -5.9625517137        0.7185220758        0.9087182111
 N         -5.3065959020       -0.1824917144        0.0616175693
 C         -6.0362209518       -1.2045428680       -0.5577045393
 C         -5.4806351863       -2.4733272973       -0.7202342785
 C         -6.2057390311       -3.4767417274       -1.3328828093
 C         -7.4933115452       -3.2373139336       -1.7844535674
 C         -8.0513822305       -1.9799920120       -1.6213404154
 C         -7.3314679426       -0.9678594037       -1.0171962596
 C         -3.9374872801       -0.0558381715       -0.1743205076
 C         -3.3984507051       -0.3618860950       -1.4250662339
 C         -2.0460892626       -0.2296057987       -1.6559910948
 C         -1.1825194971        0.2086624103       -0.6525368810
 C          0.2563291576        0.3494562327       -0.9024453124
 C          0.7133917853        0.8367667199       -2.1465885839
 C          2.0469096334        0.9789521369       -2.4084412603
 C          3.0036006669        0.6355643894       -1.4363332215
 N          4.3212468654        0.7814912179       -1.7228890611
 C          5.1423226970        0.4419475015       -0.7701321099
 C          4.6881588699       -0.0579092468        0.5136642588
 N          3.4284650983       -0.2042202046        0.8073570239
 C          2.5552489411        0.1447368824       -0.1747294382
 C          1.1798292832        0.0133868388        0.0646097531
 C          5.8622305748       -0.3328265039        1.3302563610
 C          6.0813421549       -0.8059398264        2.5991945696
 C          7.4112537114       -0.9342854139        3.0426514081
 C          8.4925324292       -0.6067972346        2.2600379065
 C          8.3028374803       -0.1166712782        0.9480603781
 C          9.2873493690        0.2677793425        0.0096071194
 C          8.9210651547        0.7273343168       -1.2328670355
 C          7.5780534378        0.8416957414       -1.6390316675
 C          6.5972703622        0.4767570267       -0.7517016952
 C          6.9763285616        0.0036964778        0.5264835139
 C         -1.7259620500        0.5085241622        0.5964505302
 C         -3.0772409479        0.3807711939        0.8349265011
 C         -5.6108749565        2.0680115878        0.9186242499
 C         -6.2642668427        2.9509335466        1.7560941784
 H         -7.7913147625        3.2028819703        3.2373677160
 H         -8.4234914113        0.8155107542        3.2273272186
 H         -7.2568867309       -0.7668764677        1.7510749454
 H         -4.4806823136       -2.6648126635       -0.3597036795
 H         -5.7646277522       -4.4555890879       -1.4504030864
 H         -8.0579286845       -4.0249910183       -2.2594259310
 H         -9.0525029702       -1.7823245376       -1.9749700211
 H         -7.7649315639        0.0143768167       -0.8989438802
 H         -4.0511420571       -0.7003721870       -2.2160436616
 H         -1.6504053707       -0.4866866241       -2.6273074428
 H         -0.0131071280        1.1225830594       -2.8929917243
 H          2.4002953430        1.3572789977       -3.3553918546
 H          0.8723132624       -0.3805649390        1.0210202358
 H          5.2615770131       -1.0753542470        3.2471031914
 H          7.5817148906       -1.3078684281        4.0425236332
 H          9.4959418901       -0.7220667517        2.6441518636
 H         10.3320731020        0.1979110841        0.2768029825
 H          9.6919161643        1.0145201501       -1.9335686962
 H          7.3352631638        1.2073944519       -2.6246546157
 H         -1.0801716654        0.8605292401        1.3867288484
 H         -3.4792761693        0.6169413832        1.8090739940
 H         -4.8268388636        2.4171029215        0.2628602242
 H         -5.9838807330        3.9939850580        1.7517638697
  62
  -97.6041094800000       0.111261677260425      !
 C         -8.1615038226        2.8498200704        0.4424549787
 C         -8.3052710999        1.6405825889        1.1023192212
 C         -7.3583615114        0.6457733532        0.9553779388
 C         -6.2502697981        0.8461018652        0.1326489592
 N         -5.2895700253       -0.1598679709       -0.0202450298
 C         -5.6881175727       -1.5023784305       -0.0448902084
 C         -4.9204336691       -2.4812673593        0.5855974823
 C         -5.3163467007       -3.8040258970        0.5533629813
 C         -6.4834301486       -4.1717655582       -0.0961121228
 C         -7.2532960994       -3.2024248527       -0.7178474015
 C         -6.8609851051       -1.8780455242       -0.6988345777
 C         -3.9355777568        0.1643172988       -0.1058886492
 C         -3.0728369317       -0.5985265979       -0.8956408490
 C         -1.7275499424       -0.3060955737       -0.9462227231
 C         -1.1980041892        0.7686611588       -0.2328792787
 C          0.2407564087        1.0527263397       -0.2546262013
 C          0.7059031915        2.3843552366       -0.3104632888
 C          2.0424360670        2.6700300744       -0.3010836546
 C          2.9910878044        1.6344969524       -0.2193951236
 N          4.3109015136        1.9456686832       -0.1808634881
 C          5.1228182094        0.9313991328       -0.0841346552
 C          4.6576538573       -0.4415173670       -0.0299876332
 N          3.3967114906       -0.7607055322       -0.0760692022
 C          2.5329096081        0.2848955389       -0.1692636022
 C          1.1559234179        0.0234363793       -0.1968798695
 C          5.8222778498       -1.3075237874        0.0882233727
 C          6.0281605243       -2.6601701160        0.1873092245
 C          7.3515291191       -3.1266180773        0.2999910057
 C          8.4388749849       -2.2861614270        0.3152984112
 C          8.2625799345       -0.8873870121        0.2153505825
 C          9.2546466784        0.1193673043        0.2181448870
 C          8.9008974429        1.4434633963        0.1149427419
 C          7.5639630132        1.8702272750        0.0039334263
 C          6.5760059295        0.9182683401       -0.0013444737
 C          6.9423854548       -0.4441836067        0.1032712213
 C         -2.0685883123        1.5470442070        0.5286204397
 C         -3.4118474968        1.2471820713        0.6022092271
 C         -6.1140022845        2.0629748572       -0.5350497448
 C         -7.0615826706        3.0549993195       -0.3741106911
 H         -8.9018400664        3.6258696182        0.5625729072
 H         -9.1575524689        1.4725631888        1.7439818170
 H         -7.4674856558       -0.2922507153        1.4793255442
 H         -4.0160043870       -2.1954051728        1.1020212312
 H         -4.7134159159       -4.5514527972        1.0476380260
 H         -6.7914328397       -5.2059466629       -0.1158151144
 H         -8.1630204533       -3.4802291435       -1.2293558710
 H         -7.4573706314       -1.1250483851       -1.1928891206
 H         -3.4690959419       -1.4249107453       -1.4669503401
 H         -1.0770788672       -0.9018160210       -1.5690079039
 H         -0.0157186059        3.1851604711       -0.3801329646
 H          2.4042642843        3.6856416742       -0.3491452622
 H          0.8372800558       -1.0057247869       -0.1362323103
 H          5.2028999224       -3.3552507599        0.1818007560
 H          7.5116306504       -4.1924809470        0.3796328298
 H          9.4368756234       -2.6907383605        0.4053787452
 H         10.2951581918       -0.1602835712        0.3013462566
 H          9.6774321600        2.1951098995        0.1183808069
 H          7.3311587414        2.9209686825       -0.0727973863
 H         -1.6792702433        2.3730002623        1.1052945136
 H         -4.0652807483        1.8421371926        1.2229375948
 H         -5.2628676131        2.2210486219       -1.1808077333
 H         -6.9450001179        3.9918889726       -0.8985698424
  62
  -97.6040241500000       0.101655445919970      !
 C         -7.7921468232        2.7083167114       -1.7909655718
 C         -8.2389160235        1.9601583698       -0.7141276008
 C         -7.4207587567        1.0099867451       -0.1346860673
 C         -6.1376606687        0.7886759102       -0.6342464610
 N         -5.3089402462       -0.1779758463       -0.0515879493
 C         -5.8667006598       -1.3789677602        0.4041333822
 C         -5.4116778146       -1.9716205361        1.5817251670
 C         -5.9664929679       -3.1570583926        2.0232897162
 C         -6.9856597014       -3.7647064634        1.3083860683
 C         -7.4456029492       -3.1768746287        0.1413557766
 C         -6.8911041749       -1.9962077127       -0.3131208807
 C         -3.9413102024        0.0576060977        0.0859410226
 C         -3.0243836638       -0.9905390698       -0.0150058748
 C         -1.6751579358       -0.7581514460        0.1399678054
 C         -1.1879719544        0.5232586209        0.3978665956
 C          0.2480779773        0.7544487079        0.5889954021
 C          0.6905711136        1.6874291049        1.5526990280
 C          2.0210890145        1.9052867604        1.7740416415
 C          2.9900135050        1.1970770435        1.0407340581
 N          4.3043056102        1.4200699475        1.2908201020
 C          5.1369224858        0.7157733465        0.5780795195
 C          4.6984256028       -0.2398614048       -0.4211884440
 N          3.4422329850       -0.4643417821       -0.6782375277
 C          2.5569095629        0.2562195152        0.0604230041
 C          1.1843075049        0.0578992261       -0.1457676485
 C          5.8824985691       -0.8450637799       -1.0150990049
 C          6.1170297936       -1.7919307684       -1.9796880205
 C          7.4523024467       -2.1221948589       -2.2793590205
 C          8.5240031597       -1.5380260076       -1.6474801929
 C          8.3183233127       -0.5597766817       -0.6484094063
 C          9.2913805574        0.1385732588        0.1021440135
 C          8.9099778045        1.0631781273        1.0447730854
 C          7.5620533056        1.3653977587        1.3158409400
 C          6.5921269602        0.7056147132        0.6043271506
 C          6.9867181399       -0.2452678653       -0.3658900954
 C         -2.1072613262        1.5685263375        0.4840605148
 C         -3.4587021436        1.3442086466        0.3322195835
 C         -5.6949176628        1.5402076825       -1.7223626612
 C         -6.5174268415        2.4941147465       -2.2894514897
 H         -8.4329414989        3.4523722737       -2.2388289279
 H         -9.2300017042        2.1221594308       -0.3165991255
 H         -7.7677220556        0.4333424894        0.7101655340
 H         -4.6246474877       -1.4942137507        2.1466558774
 H         -5.6060699681       -3.6044021606        2.9378741355
 H         -7.4188238408       -4.6891158021        1.6585759683
 H         -8.2368655863       -3.6452622678       -0.4251188540
 H         -7.2450251043       -1.5439524267       -1.2279060763
 H         -3.3807966237       -1.9902073492       -0.2145043718
 H         -0.9859523270       -1.5867532384        0.0778136694
 H         -0.0440538471        2.2175970156        2.1405191462
 H          2.3631436440        2.6109020422        2.5155445988
 H          0.8888896429       -0.6469266407       -0.9074356569
 H          5.3051107280       -2.2755139707       -2.5002976358
 H          7.6349171106       -2.8682306533       -3.0395770743
 H          9.5321676853       -1.8248487496       -1.9103535296
 H         10.3393146061       -0.0602561061       -0.0710909168
 H          9.6722701838        1.5840085823        1.6065418350
 H          7.3070622214        2.0973004830        2.0664803224
 H         -1.7581582219        2.5751557490        0.6600049700
 H         -4.1545091354        2.1663953961        0.4110035318
 H         -4.7051829336        1.3677027508       -2.1189145509
 H         -6.1628280649        3.0680614727       -3.1328223090
  62
  -97.6028169700000       2.833669095545450E-002 !
 C         -8.1966132234        2.6562931680        0.9021464955
 C         -8.1346769056        1.4415894965        1.5654023102
 C         -7.1574253042        0.5196035741        1.2451374898
 C         -6.2255673446        0.8023110778        0.2470618702
 N         -5.2320280173       -0.1297182840       -0.0787812299
 C         -5.5433800718       -1.4957298320       -0.0649225789
 C         -4.6441492094       -2.4292229894        0.4502178788
 C         -4.9599236942       -3.7737052052        0.4498366985
 C         -6.1764532604       -4.2090079301       -0.0498204610
 C         -7.0784414171       -3.2848515894       -0.5511087606
 C         -6.7675989781       -1.9388209531       -0.5642594301
 C         -3.9163228148        0.2799229657       -0.2876720855
 C         -3.0845343565       -0.4386439765       -1.1501213168
 C         -1.7523733849       -0.1118747886       -1.2709346311
 C         -1.2088887571        0.9602215414       -0.5634529834
 C          0.2348274453        1.2167644304       -0.5786242815
 C          0.7474118888        2.5309331870       -0.6116205531
 C          2.0922924504        2.7686877087       -0.5442568029
 C          2.9998329928        1.7010873914       -0.4152983855
 N          4.3247669963        1.9643746585       -0.2869115039
 C          5.0903656314        0.9216864175       -0.1292119475
 C          4.5734121572       -0.4335992433       -0.1097392940
 N          3.3092026752       -0.7078935200       -0.2496227259
 C          2.4925592316        0.3684968707       -0.3974922537
 C          1.1113010035        0.1559711527       -0.4942462448
 C          5.6902350083       -1.3406547090        0.1112260897
 C          5.8340762581       -2.6987554922        0.2405451730
 C          7.1222157872       -3.2121509915        0.4821770825
 C          8.2338749259       -2.4115754080        0.5937003876
 C          8.1208822826       -1.0085650085        0.4646477704
 C          9.1447931816       -0.0385955978        0.5564523945
 C          8.8516390120        1.2963988690        0.4120014073
 C          7.5479046108        1.7707684878        0.1726936517
 C          6.5299374009        0.8557338031        0.0786758948
 C          6.8351052102       -0.5183577095        0.2233399806
 C         -2.0613048983        1.7257606695        0.2301513166
 C         -3.3904719966        1.3891956347        0.3765786737
 C         -6.2943944585        2.0241728064       -0.4208385349
 C         -7.2729889214        2.9417494277       -0.0903560019
 H         -8.9589963766        3.3760959510        1.1581479122
 H         -8.8464924904        1.2132212024        2.3449682857
 H         -7.1040830685       -0.4241083356        1.7679987279
 H         -3.7002884268       -2.0924705631        0.8525983731
 H         -4.2535529862       -4.4851096445        0.8516916732
 H         -6.4201670828       -5.2603827103       -0.0462946125
 H         -8.0289347167       -3.6151402240       -0.9433237049
 H         -7.4689401752       -1.2201168179       -0.9621424259
 H         -3.4909676255       -1.2695444405       -1.7073779656
 H         -1.1209975985       -0.6855648096       -1.9329405012
 H          0.0574175035        3.3570114021       -0.7043283773
 H          2.4906983179        3.7713652605       -0.5705464935
 H          0.7544766415       -0.8613979526       -0.4508107570
 H          4.9868198662       -3.3624688745        0.1638506834
 H          7.2337372139       -4.2820872484        0.5859986917
 H          9.2026508327       -2.8512580165        0.7830052920
 H         10.1610114939       -0.3549045038        0.7432624968
 H          9.6513526320        2.0194052275        0.4871122547
 H          7.3627450359        2.8287499344        0.0700240783
 H         -1.6639458320        2.5625346453        0.7855396733
 H         -4.0235610466        1.9658043945        1.0344387405
 H         -5.5774052940        2.2438203040       -1.1984021506
 H         -7.3181117554        3.8845081548       -0.6154036732
