  62
        -97.60431623
 C         -8.1049623340        2.9282789819        0.1099200237
 C         -8.3346177704        1.7584067870        0.8154384004
 C         -7.4120924824        0.7307198063        0.7863112393
 C         -6.2418465898        0.8584597820        0.0386570337
 N         -5.3056251805       -0.1818434046        0.0031433634
 C         -5.7441312864       -1.5107350058       -0.0259903361
 C         -5.0502475653       -2.5008943673        0.6693714212
 C         -5.4859576272       -3.8111505557        0.6340292774
 C         -6.6200693035       -4.1549909250       -0.0834720028
 C         -7.3161846189       -3.1743490892       -0.7711349851
 C         -6.8835930152       -1.8626975891       -0.7490345607
 C         -3.9410452999        0.1071466190       -0.0060123367
 C         -3.0479133617       -0.6874920435       -0.7272069666
 C         -1.7000730343       -0.4019543249       -0.7268356850
 C         -1.1944075994        0.6913231528       -0.0232978947
 C          0.2410614695        0.9907853908       -0.0312610966
 C          0.6866925777        2.3301031918       -0.0739912965
 C          2.0183047983        2.6363739351       -0.0852165271
 C          2.9842077735        1.6144314021       -0.0497106983
 N          4.2997277977        1.9447206059       -0.0607693246
 C          5.1292935598        0.9407598490       -0.0257476132
 C          4.6861718240       -0.4396801767        0.0215554695
 N          3.4289014380       -0.7764691431        0.0308064500
 C          2.5471025130        0.2577209156       -0.0059516762
 C          1.1738349265       -0.0242416672        0.0008843774
 C          5.8672968021       -1.2909766046        0.0499842538
 C          6.0968303838       -2.6427145718        0.0966394103
 C          7.4307297547       -3.0923675574        0.1104358638
 C          8.5057767079       -2.2365155534        0.0794840896
 C          8.3051582454       -0.8382359278        0.0318068910
 C          9.2820738590        0.1826387075       -0.0040194218
 C          8.9052158144        1.5036245848       -0.0481329395
 C          7.5584603369        1.9132767584       -0.0606068679
 C          6.5847844702        0.9472284725       -0.0272311562
 C          6.9747924489       -0.4118428852        0.0187370276
 C         -2.0922619538        1.4864470376        0.6886435796
 C         -3.4397784663        1.1982520193        0.7060338460
 C         -6.0181838359        2.0359590426       -0.6744507331
 C         -6.9429553018        3.0610711957       -0.6325681213
 H         -8.8263657866        3.7305137335        0.1382312608
 H         -9.2355248322        1.6477883828        1.4007442027
 H         -7.5886680864       -0.1772482927        1.3440278219
 H         -4.1720825229       -2.2333811550        1.2383681854
 H         -4.9404482539       -4.5675949052        1.1787651327
 H         -6.9590264519       -5.1793966618       -0.1062116571
 H         -8.1987147364       -3.4335519021       -1.3372162424
 H         -7.4225736150       -1.1014410834       -1.2937085380
 H         -3.4234749104       -1.5262916761       -1.2943532735
 H         -1.0286631879       -1.0158699035       -1.3081735296
 H         -0.0463730358        3.1218868356       -0.1211133445
 H          2.3633319169        3.6581336216       -0.1249018093
 H          0.8743674948       -1.0594042740        0.0550633550
 H          5.2820071706       -3.3496411507        0.1235437471
 H          7.6095557736       -4.1576037877        0.1483410175
 H          9.5126947874       -2.6285378818        0.0919921600
 H         10.3292998082       -0.0836748178        0.0035386424
 H          9.6704489077        2.2662914687       -0.0745929052
 H          7.3074091497        2.9620109265       -0.0951518418
 H         -1.7245743868        2.3209062470        1.2672039706
 H         -4.1170222450        1.8124646735        1.2809290243
 H         -5.1175936218        2.1370921685       -1.2621286455
 H         -6.7582432558        3.9668915069       -1.1910286998
