  64
        -93.74402082
 C          1.5782928106       -4.2250847862       -1.5241082380
 C          0.7333179181       -3.9989860572       -0.2626090846
 C          1.5122213714       -4.4690178598        0.9741655351
 C         -0.5329397470       -4.8518884122       -0.3788634901
 C          0.4353879904       -2.5135498357       -0.1246372763
 C          1.4954237353       -1.6279539853       -0.0185356014
 C          1.2848010815       -0.2502156367        0.0492006536
 C         -0.0238670323        0.2732225192        0.0490667598
 C         -1.0935480723       -0.6505667077        0.0321728931
 C         -0.8605828209       -2.0130602831       -0.1024385374
 N         -2.3812395647       -0.1351378521        0.0894837536
 C         -3.6017857145       -0.7740072662        0.2797797524
 C         -3.9096706772       -2.0373692974        0.7659993388
 C         -5.2415689092       -2.3979049826        0.8751239262
 C         -6.2659130179       -1.5246488594        0.5286584871
 C         -5.9764190355       -0.2423651010        0.1047173111
 C         -4.6482810688        0.1390798978       -0.0055016428
 C         -4.0269354650        1.3951010839       -0.3263318351
 C         -4.5004605294        2.6472654231       -0.6797099541
 C         -3.5758626619        3.6574448856       -0.8982385059
 C         -2.2152929972        3.4439711876       -0.7300277708
 C         -1.6898765605        2.2047378639       -0.3500636402
 C         -2.6381875083        1.1867211284       -0.2072714347
 B         -0.2365679542        1.7811146572       -0.0353526788
 C          1.0245244756        2.6322269028        0.1874283953
 C          1.0194211520        4.0187566167        0.3872288156
 C          2.1739685919        4.7446901587        0.5684613235
 C          3.3990440441        4.0877819260        0.5544615486
 C          3.4512201220        2.7235588207        0.3901213158
 C          2.2758900232        1.9761830845        0.2221971021
 N          2.3680725056        0.6039628591        0.0942839383
 C          3.6690799772        0.0236844434        0.0149210019
 C          4.3111209049       -0.4157442438        1.1663804745
 C          5.5686339730       -0.9859482145        1.0776216164
 C          6.1867247214       -1.1184699769       -0.1552675970
 C          5.5465026740       -0.6799215596       -1.3023949007
 C          4.2883396885       -0.1092251900       -1.2208909476
 H          2.5229826135       -3.6912342355       -1.4687132105
 H          1.0402432463       -3.8762258174       -2.4030158742
 H          1.7916417548       -5.2846826957       -1.6475788323
 H          0.9300131515       -4.2890676853        1.8756358494
 H          2.4586759717       -3.9439669837        1.0690195189
 H          1.7191856691       -5.5347755339        0.9038106897
 H         -0.2554474949       -5.8993704973       -0.4783305961
 H         -1.1537770977       -4.7540535302        0.5085493169
 H         -1.1138614922       -4.5749063008       -1.2554058107
 H          2.5040195452       -2.0060226000       -0.0131645054
 H         -1.6934748151       -2.6745085626       -0.2391791928
 H         -3.1497736826       -2.7243791811        1.0998018678
 H         -5.4879048187       -3.3806098372        1.2497220753
 H         -7.2928549947       -1.8452949925        0.6196259739
 H         -6.7646813832        0.4591082948       -0.1235071222
 H         -5.5590072420        2.8306993016       -0.7883758208
 H         -3.9236792857        4.6371335050       -1.1936664707
 H         -1.5402920732        4.2660420392       -0.9136080443
 H          0.0683068133        4.5264905204        0.4184226347
 H          2.1337685974        5.8131873192        0.7202451971
 H          4.3154929175        4.6446561492        0.6856038555
 H          4.4101395318        2.2275487241        0.4040716827
 H          3.8174852452       -0.3075898188        2.1211068436
 H          6.0668768016       -1.3266800779        1.9728201382
 H          7.1682381636       -1.5629833839       -0.2216020020
 H          6.0267351470       -0.7827525586       -2.2638785070
 H          3.7775606083        0.2358499991       -2.1076774222
