64
 energy: -93.779186053327 gnorm: 0.000064060255 xtb: 6.7.1 (edcfbbe)
C            2.14021776915823       -3.92011627230883        0.01698487579344
C            0.64626178129470       -3.58307558694503       -0.02466363683071
C           -0.02773358922757       -4.26206639323009        1.17705267957649
C            0.06545177713088       -4.14513369275222       -1.33093500531249
C            0.37845375534258       -2.08571692142766        0.02914329561043
C            1.39718043467514       -1.15278754317505        0.06493741988888
C            1.12394029585763        0.21936420578125        0.04323898257215
C           -0.20471110848427        0.68581527068716        0.01515868034689
C           -1.23487356973781       -0.28276134039966        0.07646524843730
C           -0.94114622403338       -1.63574214999480        0.03472395353438
N           -2.54457111170860        0.18280670099143        0.11362999618904
C           -3.73515659576134       -0.48950239019094        0.36897874899000
C           -3.98211083729286       -1.71958827086733        0.96360047198075
C           -5.29562585557539       -2.12798182606923        1.11862332137601
C           -6.36072994826049       -1.33178024348271        0.71230650935948
C           -6.13210648274015       -0.07777143608819        0.17932101819790
C           -4.82273720013265        0.35121747945629        0.02112639732150
C           -4.25854390201885        1.60249573835386       -0.40784716950154
C           -4.78787628547517        2.80102421454334       -0.85761229317505
C           -3.90890262296259        3.82859469499146       -1.16566499771580
C           -2.53894342455837        3.68816973097113       -0.99119757246230
C           -1.95770320744024        2.50739528799142       -0.51764406379372
C           -2.86083121913566        1.46456565355278       -0.28634407485445
B           -0.48390573369691        2.17215388021602       -0.18143309324778
C            0.74057534647141        3.09052142730336       -0.03003629044625
C            0.67679934040635        4.48735108007589        0.06501920088321
C            1.79897132883274        5.27397798062157        0.18923303892993
C            3.05134751489420        4.67018728477200        0.22193518615385
C            3.16134955200817        3.30089534745968        0.15939284878843
C            2.01924135039226        2.49211590847078        0.05109304768385
N            2.17111450717993        1.11917017708784        0.02541206462236
C            3.49898309046379        0.59008816849819        0.00750909614992
C            4.13714205851232        0.26694269840195        1.19916815136825
C            5.41809402911501       -0.25615721983783        1.17362792021550
C            6.06365929478385       -0.45687375978784       -0.03589850650199
C            5.42774292259402       -0.13216296976197       -1.22297345386861
C            4.14611420121757        0.39096907810668       -1.20504793689317
H            2.59829741096252       -3.55890982646896        0.93518638082587
H            2.66415598078940       -3.49151575142852       -0.83452164226890
H            2.26756341273462       -5.00032180427729       -0.02017756116548
H           -1.10760422102176       -4.14819398582266        1.14396105535724
H            0.33507790443455       -3.82903051354504        2.10736617292176
H            0.19830191213915       -5.32643101877608        1.18038994130495
H            0.25348747072921       -5.21504770386796       -1.39397265841463
H           -1.00772826439578       -3.98440419161901       -1.39077333098689
H            0.53008172735165       -3.66148514020244       -2.18809176105554
H            2.42253801372028       -1.47553486773875        0.08523607876308
H           -1.74249941825141       -2.34831745504554       -0.04014115272591
H           -3.18810779375783       -2.34012552002057        1.34519147995731
H           -5.49537944823733       -3.08524215619329        1.57834430771098
H           -7.37229114111966       -1.68763622296213        0.84238393281570
H           -6.95352927964204        0.56677406838553       -0.09669062783474
H           -5.85428658690625        2.93026694221961       -0.97162031083934
H           -4.30052868958610        4.76579186907845       -1.53646766939793
H           -1.90200723205272        4.52222609699738       -1.24505404996532
H           -0.29509429066535        4.95592855121545        0.05956318769339
H            1.71277021185290        6.34869476079548        0.26118482145810
H            3.94357715021571        5.27408855148362        0.30934900338015
H            4.14089142868318        2.84924036348030        0.20704599821952
H            3.62328320021190        0.42694432596383        2.13578908769705
H            5.91260853476124       -0.50727100675272        2.10025062742608
H            7.06265857445032       -0.86625372736870       -0.05296434559951
H            5.92929961032813       -0.28721354060147       -2.16666224190687
H            3.64003439016493        0.64637491104064       -2.12449078273447
