64
 energy: -93.693014720563 gnorm: 0.000070176730 xtb: 6.7.1 (edcfbbe)
C           -0.52807455500560       -4.84165142108976        0.57427485585501
C            0.73818278074095       -3.98965856633792        0.44478013681619
C            1.54370456810476       -4.50776038610730       -0.75663701268412
C            1.56158204164538       -4.15531387821705        1.73128821629550
C            0.43042432736926       -2.51537192630504        0.23781501855200
C            1.49090916210795       -1.61232610263024        0.10661779578482
C            1.27492468525503       -0.23531200848930       -0.00121513546192
C           -0.03050614168592        0.29698100950319       -0.00811071061147
C           -1.09084029586390       -0.63832815464703        0.00281632351540
C           -0.85775811730622       -2.00790976555045        0.18850181667649
N           -2.37939809484674       -0.13805082257321       -0.08668650614206
C           -3.57547519823254       -0.78849442013297       -0.32672748409470
C           -3.84799485512131       -2.05518048176653       -0.83067106032558
C           -5.16780413620896       -2.43689506116792       -0.98409788815573
C           -6.21718971908344       -1.57096955590464       -0.66571254740985
C           -5.96425472525601       -0.28488166174615       -0.23223226967334
C           -4.64601723156847        0.12487962229175       -0.07563947022288
C           -4.04813507937295        1.37955516335808        0.26184326593504
C           -4.54852999032564        2.64103066105077        0.59137769527473
C           -3.62746856424392        3.65491698007110        0.84142738106496
C           -2.26334861626467        3.45509504189529        0.73388146180831
C           -1.70545486305634        2.20967362605892        0.35230110860559
C           -2.65560369452637        1.18724115559110        0.19665235933012
B           -0.25214805243501        1.80156611210051        0.06996071927939
C            1.01477012516865        2.65193761089376       -0.09992365133540
C            1.03013892156246        4.04847896841330       -0.24514222473703
C            2.19423434981392        4.76868495309055       -0.41186227753795
C            3.41771235429902        4.10788288169453       -0.45195137298690
C            3.45446310666073        2.73071698690553       -0.34029281537724
C            2.27689617685920        1.99334134791734       -0.16836027971309
N            2.36138637987664        0.61540784104925       -0.07788600500243
C            3.65971211413342        0.02206170803802       -0.11311600688159
C            4.40456255642467       -0.07720506109747        1.05598358377348
C            5.65780384590825       -0.66367160358822        1.02333925664931
C            6.16869119033236       -1.15012304007532       -0.16927625058306
C            5.42466543874387       -1.05015641006459       -1.33400755208785
C            4.17014941054392       -0.46600329863099       -1.31014234687927
H           -1.13580636746589       -4.78067080250822       -0.32575926457984
H           -1.12434836909762       -4.53376309923493        1.43043234762373
H           -0.24973441638029       -5.88367294450419        0.71861295889426
H            0.97869276464241       -4.37061677352608       -1.67669697871866
H            1.75356857376099       -5.56843113830801       -0.63593598855672
H            2.49046073727502       -3.98373159240469       -0.85592075952874
H            1.77017442624994       -5.20831903191675        1.90839114116350
H            2.50925755448937       -3.62728781707261        1.66701788763944
H            1.00961835196264       -3.76454977585023        2.58406148000079
H            2.50101344956495       -1.98504921277318        0.14176346698228
H           -1.70038430982701       -2.65503483784689        0.34909728551682
H           -3.06309900796996       -2.72399739934147       -1.14578721690771
H           -5.39210344312133       -3.41885680403013       -1.37378936692765
H           -7.23634457345473       -1.90701364819197       -0.79083350377162
H           -6.77414653178806        0.40026541624315       -0.02826403180140
H           -5.61044132038002        2.82045809697049        0.66298136443629
H           -3.99393989375138        4.63473004870711        1.11985034732912
H           -1.60219389736994        4.27977661814686        0.95094226870254
H            0.08674291431251        4.57086104087191       -0.24383431154165
H            2.15918841710057        5.84438866766774       -0.51521676368982
H            4.33656653964235        4.66087227673449       -0.57910817431622
H            4.40869945551446        2.22870107770782       -0.38951720883949
H            3.99536959641500        0.30529917012047        1.97938725734010
H            6.23478398552235       -0.74124622965468        1.93264740178339
H            7.14645048720130       -1.60727579846696       -0.19090502920554
H            5.82043070300086       -1.42794696565210       -2.26481361772818
H            3.58020357328401       -0.38430975481086       -2.21115409536373
