  69
       -112.02599569
 N        -10.5245014964       -2.7786482850       -0.6032406980
 C         -9.4891022465       -2.2963626280       -0.4852796854
 C         -8.2195891000       -1.7036410948       -0.3415130795
 C         -7.7065264808       -1.4337085911        0.9324262355
 C         -6.4634852204       -0.8620480717        1.0676228909
 C         -5.6956519383       -0.5189609560       -0.0570535638
 C         -4.3912011592        0.1004287609        0.0895149135
 C         -3.4014866583       -0.5030807213        0.9292194377
 C         -3.6107762649       -1.7413170173        1.5420636414
 C         -2.6798235305       -2.2845142165        2.4247427725
 C         -1.5230083188       -1.5918675890        2.7118990840
 C         -1.2571781594       -0.3893579720        2.0628396280
 C         -2.1453475363        0.1463117480        1.1241771798
 C         -1.8322819547        1.3225474929        0.3794394965
 C         -0.5293868372        1.9630629816        0.5394501601
 C         -0.4371445584        3.3125404894        0.9005285523
 C          0.7949150659        3.9205492664        1.0582404839
 C          1.9606847346        3.2077705782        0.8525367534
 C          1.8878876128        1.8611306896        0.4878582832
 C          3.1086200146        1.1201429683        0.2658577476
 N          4.3162578584        1.5969704207        0.3618370874
 C          5.1388260005        0.5478000605        0.0699943097
 C          6.5592232756        0.4776865110        0.0164409810
 C          7.3563918796        1.5939123675        0.2868754086
 C          8.7246264371        1.4993055681        0.2253955518
 C          9.3120816702        0.2811150129       -0.1097162776
 C          8.5377612733       -0.8237997800       -0.3770522790
 C          7.1363957657       -0.7702909949       -0.3239953449
 C          6.2998105981       -1.9259839448       -0.6010630007
 C          6.8282347289       -3.1807686264       -0.9374737595
 C          6.0175653740       -4.2619021996       -1.1955305114
 C          4.6304934092       -4.1453064321       -1.1308793702
 C          4.0698948972       -2.9360764730       -0.8051527258
 C          4.8852727268       -1.8285931092       -0.5401425553
 C          4.3540865909       -0.5620165779       -0.1996366426
 O          3.0579593377       -0.1953736187       -0.0738237243
 C          0.6496615442        1.2460085880        0.3383626543
 C         -2.7907315572        1.8843826811       -0.5160685351
 C         -2.4836287367        2.9818925808       -1.3271443879
 C         -3.4512168417        3.5937945347       -2.1191342022
 C         -4.7468185690        3.1232573767       -2.1035664312
 C         -5.0635408965        1.9916289435       -1.3551470797
 C         -4.0957618349        1.3144539128       -0.6086335998
 C         -6.2280545445       -0.7888635255       -1.3283700831
 C         -7.4611985738       -1.3791769060       -1.4723712436
 H         -8.2979044086       -1.6726969497        1.8043278413
 H         -6.0840731677       -0.6292608236        2.0519355996
 H         -4.5084696087       -2.2991385194        1.3242523381
 H         -2.8789773762       -3.2391180624        2.8877121971
 H         -0.8116728343       -1.9816391754        3.4243212999
 H         -0.3463980595        0.1409987066        2.2943387911
 H         -1.3442700407        3.8693112045        1.0853752044
 H          0.8438112705        4.9599410584        1.3472816541
 H          2.9309251116        3.6627300822        0.9657080567
 H          6.8628228396        2.5189982979        0.5414870052
 H          9.3441732981        2.3588348773        0.4333914221
 H         10.3883466153        0.2027078393       -0.1607130795
 H          9.0352678224       -1.7457739970       -0.6325066320
 H          7.8958107472       -3.3177510501       -0.9987892711
 H          6.4615013434       -5.2127366126       -1.4513438943
 H          4.0051917421       -5.0013155328       -1.3356846212
 H          2.9985108632       -2.8139603172       -0.7463373389
 H          0.6019829162        0.2117991660        0.0310771077
 H         -1.4739286050        3.3621969463       -1.3443333251
 H         -3.1826832314        4.4445023127       -2.7270382970
 H         -5.5177259576        3.6150663760       -2.6769623350
 H         -6.0839922868        1.6408909484       -1.3489271245
 H         -5.6345363428       -0.5654490300       -2.2029055315
 H         -7.8518714313       -1.6008758815       -2.4548625557
  69
       -112.02595179
 N        -10.3337200438       -3.0156407479       -0.7755067668
 C         -9.3303750580       -2.4769542944       -0.6258548711
 C         -8.0970640536       -1.8214074784       -0.4441823973
 C         -7.6028901255       -1.5903051649        0.8447187655
 C         -6.3910382750       -0.9638852139        1.0157758941
 C         -5.6371460799       -0.5271316000       -0.0856900296
 C         -4.3581144031        0.1338900841        0.0968763411
 C         -3.3484329220       -0.4734924586        0.9090098937
 C         -3.5141903258       -1.7439090864        1.4674006796
 C         -2.5666260535       -2.2903715445        2.3298084303
 C         -1.4375951523       -1.5682127723        2.6528366747
 C         -1.2123894902       -0.3320897903        2.0535631999
 C         -2.1139362453        0.2076760468        1.1302262185
 C         -1.8323303728        1.4157249197        0.4231060799
 C         -0.5277850371        2.0526059148        0.5731447854
 C         -0.4138964670        3.3967379916        0.9484011423
 C          0.8280130250        3.9894806351        1.0882467320
 C          1.9828930194        3.2664774406        0.8570961106
 C          1.8886989808        1.9227940117        0.4862772710
 C          3.0931598348        1.1587865500        0.2537564242
 N          4.3099310246        1.6203389391        0.2833587872
 C          5.1066248836        0.5437098050        0.0196565879
 C          6.5229930104        0.4470655439       -0.0795370782
 C          7.3452916133        1.5641622756        0.0950094158
 C          8.7088206810        1.4437718320       -0.0097817545
 C          9.2662403644        0.1984349852       -0.2921916810
 C          8.4671092406       -0.9076396512       -0.4649053360
 C          7.0695595778       -0.8282329815       -0.3651225923
 C          6.2074198296       -1.9848380050       -0.5418041346
 C          6.7056044666       -3.2673108158       -0.8139743786
 C          5.8707236864       -4.3487285257       -0.9756845240
 C          4.4884421491       -4.2047506186       -0.8736107809
 C          3.9570620443       -2.9678005814       -0.6085440816
 C          4.7973728979       -1.8597881248       -0.4417192218
 C          4.2970753043       -0.5661507254       -0.1617884196
 O          3.0117114108       -0.1719286720       -0.0139317276
 C          0.6412776017        1.3252409000        0.3480068884
 C         -2.8153362815        1.9917912925       -0.4363607080
 C         -2.5488119361        3.1310321756       -1.2031286008
 C         -3.5434748219        3.7511328722       -1.9540197782
 C         -4.8259481128        3.2453198193       -1.9438619413
 C         -5.1009224127        2.0716103320       -1.2458038773
 C         -4.1051401055        1.3897675797       -0.5415623380
 C         -6.1539241339       -0.7533211619       -1.3719854567
 C         -7.3548590390       -1.3973537173       -1.5526955525
 H         -8.1833934872       -1.9042100936        1.7000619520
 H         -6.0271965098       -0.7622419071        2.0127780248
 H         -4.3899175045       -2.3244675527        1.2215956497
 H         -2.7321639593       -3.2705269290        2.7507105805
 H         -0.7155106140       -1.9606180175        3.3528580147
 H         -0.3226682045        0.2208954641        2.3124042688
 H         -1.3102333100        3.9607126897        1.1616666673
 H          0.8934481229        5.0254452968        1.3864115496
 H          2.9596299603        3.7099456132        0.9596674662
 H          6.8742742123        2.5107050014        0.3103366866
 H          9.3476516160        2.3041691272        0.1227820702
 H         10.3387177870        0.0996366681       -0.3770817969
 H          8.9417159105       -1.8511420252       -0.6824604170
 H          7.7683718125       -3.4259506332       -0.9015644631
 H          6.2916279081       -5.3213357762       -1.1843594955
 H          3.8439727602       -5.0613426216       -1.0025843429
 H          2.8901532696       -2.8240568057       -0.5224171305
 H          0.5771302181        0.2948808210        0.0310897942
 H         -1.5495483700        3.5379322516       -1.2190592217
 H         -3.3062254014        4.6353755523       -2.5260858947
 H         -5.6175439828        3.7414056368       -2.4846429798
 H         -6.1101815858        1.6895699842       -1.2462329207
 H         -5.5710000268       -0.4536294691       -2.2307188408
 H         -7.7318859437       -1.5861440939       -2.5473426545
  69
       -112.02554955
 N        -10.4133209318       -2.6905740654       -1.2697290645
 C         -9.3928289973       -2.2307460215       -1.0121521612
 C         -8.1445219487       -1.6590369517       -0.6978151648
 C         -8.0670195965       -0.5753708627        0.1845938002
 C         -6.8448664429       -0.0296653502        0.4993012875
 C         -5.6604185020       -0.5278137203       -0.0664860576
 C         -4.3705763707        0.0527300216        0.2615788544
 C         -3.9658202377        0.1727051362        1.6299624726
 C         -4.7418656465       -0.3428520182        2.6714761198
 C         -4.3356051735       -0.2535322623        4.0010909044
 C         -3.1172317991        0.3119303986        4.3081926623
 C         -2.2945083604        0.7780186491        3.2867851228
 C         -2.6939805501        0.7376606503        1.9465827444
 C         -1.8220757193        1.1578904386        0.8979963117
 C         -0.5075175359        1.7112273499        1.2205402439
 C         -0.3839725615        2.8523562419        2.0202599220
 C          0.8617733756        3.3770425710        2.3148390336
 C          2.0082647829        2.7765930696        1.8311659536
 C          1.9034116817        1.6336675588        1.0345092090
 C          3.1048209389        1.0047496710        0.5348750062
 N          4.3220038876        1.4156202311        0.7459436802
 C          5.1189338598        0.5252702621        0.0868098089
 C          6.5357990196        0.4719259634       -0.0346705414
 C          7.3569894774        1.4276017633        0.5708586059
 C          8.7212951751        1.3527679942        0.4376930089
 C          9.2804685261        0.3156105708       -0.3058828238
 C          8.4822357288       -0.6301533041       -0.9060327056
 C          7.0838647058       -0.5897694739       -0.7953279177
 C          6.2218909190       -1.5782411289       -1.4214773891
 C          6.7213871071       -2.6453884103       -2.1821282496
 C          5.8875319954       -3.5707560707       -2.7659519352
 C          4.5049244982       -3.4775960458       -2.6196734744
 C          3.9722573308       -2.4488829127       -1.8842977951
 C          4.8113133107       -1.5009255571       -1.2852842589
 C          4.3095341643       -0.4234378025       -0.5172566788
 O          3.0235364709       -0.1155130671       -0.2311472394
 C          0.6511774113        1.1114302212        0.7296023973
 C         -2.2231513641        1.0411790171       -0.4666573436
 C         -1.4256376212        1.5329870884       -1.5056308357
 C         -1.8417458259        1.4797116722       -2.8328099823
 C         -3.0872383090        0.9767901776       -3.1401090470
 C         -3.9167526477        0.5125074711       -2.1218326346
 C         -3.5035723729        0.4995672782       -0.7869343449
 C         -5.7562363692       -1.6067511765       -0.9599719461
 C         -6.9719495452       -2.1716799706       -1.2645826828
 H         -8.9742363755       -0.1712845976        0.6096991561
 H         -6.7920306465        0.8242925089        1.1587644723
 H         -5.6720875667       -0.8412681807        2.4473518825
 H         -4.9732858504       -0.6441864437        4.7795103655
 H         -2.7838060997        0.3772317642        5.3328618097
 H         -1.3180773772        1.1626658018        3.5371916080
 H         -1.2775708567        3.3398195832        2.3821288908
 H          0.9362691686        4.2650308193        2.9249259419
 H          2.9883466047        3.1668055821        2.0511997723
 H          6.8847477779        2.2149226712        1.1376033508
 H          9.3594388603        2.0889344199        0.9031361657
 H         10.3537078694        0.2524136285       -0.4122316146
 H          8.9584448108       -1.4154653544       -1.4710014714
 H          7.7844853089       -2.7570044408       -2.3220738247
 H          6.3095399017       -4.3794072469       -3.3444291854
 H          3.8612307142       -4.2107823732       -3.0818968992
 H          2.9050115435       -2.3499824021       -1.7524133618
 H          0.5777165291        0.2160075516        0.1302853120
 H         -0.4717793154        1.9812805921       -1.2749212844
 H         -1.1928266200        1.8539120215       -3.6100886753
 H         -3.4352193718        0.9541292784       -4.1617308913
 H         -4.9098128259        0.1754743744       -2.3760430605
 H         -4.8510448832       -2.0225918721       -1.3779220578
 H         -7.0319989200       -3.0158859727       -1.9359438134
  69
       -112.02543340
 N        -10.2368710616       -2.9076924351       -1.3510871493
 C         -9.2411941609       -2.4054590227       -1.0768569547
 C         -8.0203580235       -1.7889267225       -0.7408306221
 C         -7.9961973358       -0.7205352772        0.1632879217
 C         -6.8018706410       -0.1256656157        0.4956433119
 C         -5.5931660091       -0.5583758293       -0.0730714913
 C         -4.3312109519        0.0730162075        0.2681358355
 C         -3.9325724064        0.1910476654        1.6388096623
 C         -4.6903256696       -0.3631212438        2.6737285406
 C         -4.2869600464       -0.2764406480        4.0046161512
 C         -3.0892692963        0.3276285371        4.3196667390
 C         -2.2829362617        0.8341067924        3.3045027207
 C         -2.6796471148        0.7933708397        1.9634059499
 C         -1.8182110644        1.2461286662        0.9206420059
 C         -0.5060710864        1.8054935955        1.2451299907
 C         -0.3745596466        2.9461332263        2.0429975852
 C          0.8759048146        3.4648995614        2.3309438654
 C          2.0183285560        2.8580909887        1.8450341811
 C          1.9043545986        1.7136566742        1.0522051869
 C          3.0923180216        1.0634113271        0.5482291258
 N          4.3210520122        1.4500252647        0.7355401761
 C          5.0883388154        0.5316741561        0.0781203364
 C          6.5015044779        0.4415897469       -0.0660618146
 C          7.3567482972        1.3858365283        0.5095423185
 C          8.7163959797        1.2760781862        0.3529678564
 C          9.2370853725        0.2152519018       -0.3850143559
 C          8.4053952355       -0.7200760979       -0.9554248047
 C          7.0107799967       -0.6451141991       -0.8191188726
 C          6.1159464248       -1.6243058607       -1.4132052424
 C          6.5757291415       -2.7184416252       -2.1604076464
 C          5.7089014749       -3.6337011950       -2.7117118427
 C          4.3316095360       -3.5031445815       -2.5450720867
 C          3.8373725018       -2.4471708430       -1.8216879260
 C          4.7104894728       -1.5097939569       -1.2557218664
 C          4.2485112764       -0.4070828227       -0.4992547451
 O          2.9749952143       -0.0662889191       -0.1998398768
 C          0.6478042573        1.1997760170        0.7517339634
 C         -2.2149431340        1.1363078160       -0.4455870290
 C         -1.4278751728        1.6587705331       -1.4776693299
 C         -1.8420854050        1.6115398901       -2.8056589980
 C         -3.0760550422        1.0844992618       -3.1196638778
 C         -3.8942542719        0.5866393603       -2.1080067770
 C         -3.4800994514        0.5648341621       -0.7734966865
 C         -5.6357369321       -1.6238330597       -0.9871818794
 C         -6.8227533453       -2.2375022512       -1.3098999367
 H         -8.9231493029       -0.3664783990        0.5905552136
 H         -6.7918713402        0.7184244193        1.1697645361
 H         -5.6021109707       -0.8919999900        2.4437232811
 H         -4.9101131915       -0.7002244188        4.7775096859
 H         -2.7583145958        0.3912017669        5.3452830999
 H         -1.3209027778        1.2509105945        3.5593580570
 H         -1.2638064915        3.4380131758        2.4096709080
 H          0.9567732799        4.3534309084        2.9395180487
 H          3.0009617830        3.2439790694        2.0616355814
 H          6.9146763928        2.1927788672        1.0730928408
 H          9.3801747514        2.0033726333        0.7960050054
 H         10.3062338023        0.1253007983       -0.5112606063
 H          8.8516152447       -1.5242023982       -1.5184387135
 H          7.6331404325       -2.8606350731       -2.3151013757
 H          6.1007809545       -4.4640628868       -3.2805289840
 H          3.6618860547       -4.2284588399       -2.9822791392
 H          2.7753542951       -2.3182842419       -1.6740124292
 H          0.5662733438        0.3065136045        0.1504419432
 H         -0.4841898019        2.1252091898       -1.2406140374
 H         -1.2012433290        2.0090816886       -3.5781243756
 H         -3.4229621644        1.0666117665       -4.1417469224
 H         -4.8782316598        0.2274566911       -2.3669896089
 H         -4.7104063478       -1.9892975269       -1.4083098467
 H         -6.8406686888       -3.0705422003       -1.9975983217
