  68
       -113.57090118
 C          3.6293815815        1.9771255976       -1.9848060966
 C          3.1960022370        0.7313926069       -2.4102120668
 C          1.8909532760        0.3375507481       -2.1882297650
 C          1.0025502588        1.1980682855       -1.5474848215
 C         -0.3701330008        0.7725961088       -1.2803493370
 N         -0.5997478846       -0.5407478951       -1.2775593206
 C         -1.8063372237       -0.9934273281       -0.9764307196
 C         -1.9229578685       -2.4422642703       -0.7285095271
 C         -2.8194288046       -3.2592486984       -1.3986932793
 C         -2.8399165270       -4.6201256332       -1.1423484073
 C         -1.9700953814       -5.1683372456       -0.2148563990
 C         -1.0918394054       -4.3568559765        0.4850294668
 C         -1.0710256504       -2.9940593139        0.2387547827
 N         -0.2326504066       -2.1232900473        0.9688830870
 C         -0.7237309626       -1.0108896854        1.6287796261
 C         -2.0088335955       -0.7677039471        2.0902330002
 C         -2.2546449278        0.4519307042        2.6919194526
 C         -1.2465264618        1.4014722307        2.8467316656
 C          0.0428537039        1.1503268534        2.4214203723
 C          0.3101076456       -0.0666063787        1.8092674041
 C          1.4772715331       -0.6416156039        1.2095620053
 C          2.7817333912       -0.2282578262        0.9884943083
 O          3.3510601067        0.9474800681        1.3591830286
 C          4.6276602412        0.9131455503        0.8866632573
 C          5.5767305807        1.9098218260        1.0130219062
 C          6.8175397918        1.6800001816        0.4449829894
 C          7.0994732182        0.4927578490       -0.2251321714
 C          6.1506956094       -0.5036818544       -0.3474541335
 C          4.8979559211       -0.2951937654        0.2134651708
 C          3.6760168457       -1.0497186401        0.2799699025
 C          3.2741318481       -2.2906362103       -0.2176055468
 C          1.9799727793       -2.7190200499       -0.0184889787
 C          1.1008496789       -1.8991095102        0.6852796067
 C         -2.8462793238       -0.0897025498       -0.7775756293
 S         -4.5152292267       -0.3813835226       -0.3889582006
 C         -4.7861296162        1.3405867917       -0.1927650962
 C         -5.9854777617        1.9417969396        0.1524950066
 C         -6.0166511167        3.3176721226        0.2761217711
 C         -4.8747296595        4.0857901788        0.0586127097
 C         -3.6814302382        3.4890547216       -0.2892429777
 C         -3.6306881956        2.1046688058       -0.4183080103
 C         -2.5060878419        1.2801053767       -0.7630194046
 N         -1.2735993490        1.7016024107       -0.9922716149
 C          1.4399098326        2.4520049184       -1.1278075586
 C          2.7498291522        2.8341949843       -1.3425179992
 H          4.6553169410        2.2750730794       -2.1462005021
 H          3.8837756312        0.0631221824       -2.9071656659
 H          1.5422624343       -0.6347448061       -2.5003114666
 H         -3.4838255658       -2.8301761258       -2.1342309471
 H         -3.5336358757       -5.2543125021       -1.6731466446
 H         -1.9832335920       -6.2310358279       -0.0245450793
 H         -0.4276335330       -4.7705942990        1.2290555036
 H         -2.7928016880       -1.5017787967        1.9676756558
 H         -3.2519796197        0.6768783141        3.0418207537
 H         -1.4842557882        2.3474206103        3.3101139659
 H          0.8300638092        1.8780181964        2.5437403209
 H          5.3496211239        2.8274999743        1.5313803367
 H          7.5825178501        2.4382301851        0.5217360644
 H          8.0796601905        0.3520864888       -0.6563493295
 H          6.3722596823       -1.4230170279       -0.8678991981
 H          3.9750331880       -2.9010683648       -0.7657135232
 H          1.6406487534       -3.6644179062       -0.4135559620
 H         -6.8677612606        1.3443604305        0.3220596286
 H         -6.9421092793        3.8034823827        0.5465037672
 H         -4.9292426292        5.1586578818        0.1646462448
 H         -2.7837720868        4.0611215036       -0.4628273229
 H          0.7429497769        3.1027762751       -0.6229976211
 H          3.0919314932        3.8014649330       -1.0046064008
