  65
       -101.52626905
 N        -10.4178421159       -0.0261335744       -0.0801994142
 C         -9.2697488623       -0.0011139711       -0.0503050503
 C         -7.8629531638        0.0304152487       -0.0131132323
 C         -7.1808144131       -0.2783050198        1.1698596355
 C         -5.8065654567       -0.2582470310        1.1983775074
 C         -5.0609871595        0.0878106350        0.0598076782
 C         -3.6095504759        0.1119950999        0.0919771359
 C         -2.8849045819       -1.0300238507        0.5570837034
 C         -3.5293979847       -2.2197278018        0.9104205438
 C         -2.8304482957       -3.2928008684        1.4542215554
 C         -1.4708060360       -3.1882941916        1.6627541909
 C         -0.7942278465       -2.0433191730        1.2554198710
 C         -1.4610333503       -0.9798656726        0.6375991463
 C         -0.7575965210        0.1510523125        0.1213449018
 C          0.6984583306        0.1603135779        0.1183803452
 C          1.4059012655        1.2336120043        0.6952342328
 C          2.7815325896        1.2823117019        0.7139474485
 C          3.4824314292        0.2413378946        0.1148529818
 C          2.7950693562       -0.8586472089       -0.4530975373
 C          1.4131419583       -0.8992755483       -0.4464346215
 C          3.8043067958       -1.7618761513       -0.9362403354
 C          3.7557938721       -2.9843296545       -1.5908526346
 C          4.9454264062       -3.5939263222       -1.9397500225
 C          6.1689967102       -2.9926328747       -1.6557050456
 C          6.2419444119       -1.7761038820       -1.0030453908
 C          5.0511887140       -1.1709382160       -0.6293326688
 N          4.8390570482        0.0398306869        0.0041197379
 C          5.8375810095        0.9185977158        0.4488783180
 C          5.7917895439        2.2640942224        0.0956774710
 C          6.7761360595        3.1272252700        0.5399025164
 C          7.8135537509        2.6574232421        1.3281469442
 C          7.8618113911        1.3179031366        1.6773554151
 C          6.8773202865        0.4485636527        1.2458317828
 C         -1.4803657581        1.2677944861       -0.3981946497
 C         -0.8317734039        2.3544849000       -0.9947357960
 C         -1.5319214704        3.4835771296       -1.4060250025
 C         -2.8978810536        3.5484641506       -1.2245073321
 C         -3.5773226850        2.4508351064       -0.7056477092
 C         -2.9062714428        1.2776449696       -0.3470414881
 C         -5.7603003446        0.4072437488       -1.1155049932
 C         -7.1336394421        0.3702706966       -1.1589152422
 H         -7.7443783599       -0.5266467701        2.0576156793
 H         -5.2857983891       -0.4705088416        2.1208752063
 H         -4.5926417839       -2.3166028571        0.7534719428
 H         -3.3606504107       -4.1941192218        1.7226919314
 H         -0.9226340789       -3.9957365921        2.1248640937
 H          0.2690917982       -1.9742785695        1.4270093572
 H          0.8426167606        2.0193337402        1.1767946653
 H          3.2982761854        2.0980999582        1.1968464389
 H          0.8868046770       -1.7215979675       -0.9072081323
 H          2.8066320333       -3.4420432608       -1.8249690584
 H          4.9309131322       -4.5456606985       -2.4492591788
 H          7.0819291310       -3.4855795522       -1.9550301107
 H          7.1948156207       -1.3101242798       -0.8028322170
 H          4.9937362679        2.6214723337       -0.5378640821
 H          6.7367625500        4.1701523940        0.2626157220
 H          8.5822931652        3.3336264757        1.6700004269
 H          8.6662393407        0.9487011550        2.2958696207
 H          6.8988467536       -0.5918355487        1.5341024627
 H          0.2360523766        2.3160823658       -1.1459440664
 H         -0.9976722603        4.3102448580       -1.8502359289
 H         -3.4474509850        4.4371897515       -1.4959694442
 H         -4.6464179421        2.5144383535       -0.5732688502
 H         -5.2011979749        0.6442220335       -2.0090756639
 H         -7.6598597130        0.5968622943       -2.0749642199
