65
 energy: -101.592956828813 gnorm: 0.000074944851 xtb: 6.7.1 (edcfbbe)
N          -10.41542038244317        0.01854070057563        0.04467257254994
C           -9.26874289953065        0.03081972114763        0.04933341397502
C           -7.85597343975624        0.04582313891335        0.05540945859367
C           -7.16543784869576        0.28734202950747        1.24417026011840
C           -5.78587349625679        0.29827235259008        1.24418969722323
C           -5.07266396936181        0.07492662320642        0.06755081347639
C           -3.59591153667150        0.09016029772041        0.07419364230529
C           -2.89213447880550       -0.92591441740149        0.73652667043382
C           -3.55855425054146       -2.00284709145028        1.37875631243898
C           -2.86480849177748       -2.96943181542450        2.03902240063360
C           -1.45828053607622       -2.91699892654049        2.10274055776002
C           -0.78030262468729       -1.91589672279670        1.47857466792373
C           -1.46279349360512       -0.90134469845826        0.75696842435093
C           -0.77202437627781        0.11944020024478        0.08759828861071
C            0.70587636467389        0.13638342164403        0.09407369423340
C            1.38542181002509        1.14545198979344        0.78775562153176
C            2.76387914377434        1.20506306157617        0.82225505121819
C            3.47506876169725        0.23495223328503        0.12989372789469
C            2.80489350436250       -0.80360579810321       -0.55736230196444
C            1.41876700553109       -0.84833775429276       -0.57385596369503
C            3.82402570845229       -1.64875707058050       -1.11294494233956
C            3.79118600842967       -2.79874033694967       -1.89061628592612
C            4.98724255850717       -3.36454489651988       -2.28349720409706
C            6.20423343059228       -2.78981668012462       -1.92284653225304
C            6.26223399088440       -1.64663833307630       -1.14911344452090
C            5.06365600097983       -1.08651199555116       -0.73074348559104
N            4.83782167352057        0.05141232234154        0.01865741546206
C            5.82461484118088        0.88059792274411        0.57112252633971
C            5.77971794739859        2.25580479720530        0.36162986584418
C            6.75193589356025        3.06985952931250        0.91244756303242
C            7.77821232340973        2.52229967063830        1.66413934586067
C            7.82689573749562        1.15343277958742        1.86927116350926
C            6.85322081743138        0.33232563080267        1.33162823304535
C           -1.47789513115964        1.12501418747527       -0.58883231640129
C           -0.80918994780248        2.15253962093876       -1.30485217028473
C           -1.50114197807618        3.13916692270405       -1.93660403288536
C           -2.90900575041847        3.16299165959266       -1.88636043131062
C           -3.58931854051600        2.18313717411951       -1.23166377546473
C           -2.90737745220809        1.12046648212163       -0.58207002749659
C           -5.77073538051448       -0.16297613085867       -1.11527644204098
C           -7.15020471376224       -0.18091054163040       -1.12726524248866
H           -7.71742161776445        0.46409798582009        2.15573530049945
H           -5.24626842807684        0.48764077813970        2.16076743391470
H           -4.63674131952809       -2.04683302808505        1.33205912030248
H           -3.38729606191949       -3.78176733695406        2.52256217192461
H           -0.92425174616747       -3.68114110566385        2.64809716891125
H            0.29764162089449       -1.87705576842271        1.52555816072426
H            0.80688376169430        1.88747543857121        1.31884759482010
H            3.26866843883954        1.97811658112741        1.38169978285024
H            0.89878500405660       -1.63368954392678       -1.10217915476421
H            2.84726940416473       -3.23385941466656       -2.18259477947305
H            4.98510600946713       -4.26003921897995       -2.88686696995778
H            7.12358810662512       -3.24637245931672       -2.25872452632274
H            7.21006647024198       -1.19950124665230       -0.88990692583204
H            4.99078004518822        2.67654658718132       -0.24384082954959
H            6.71244167716477        4.13627103222902        0.74651312319351
H            8.53804173841255        3.16061005167446        2.08893530761246
H            8.62295555054427        0.72276189469792        2.45841229913516
H            6.87521358799806       -0.73279009961260        1.50782291476223
H            0.26972902934310        2.13443302868593       -1.34145111730782
H           -0.97783400207736        3.91351842016421       -2.47801937102432
H           -3.44317945437690        3.96406963940192       -2.37587009219201
H           -4.66857982080862        2.20524384949191       -1.19551006639295
H           -5.21935712008885       -0.34102234341888       -2.02708330354095
H           -7.69039086605198       -0.36908774347403       -2.04359355239313
