65
 energy: -101.531051169352 gnorm: 0.000035438576 xtb: 6.7.1 (edcfbbe)
N          -10.42328568405459        0.01437031058812        0.02585699527333
C           -9.27514078549715        0.02794225431550        0.03026826371034
C           -7.86631654441422        0.04451163340367        0.03569988349527
C           -7.16438403781906       -0.13389550200153        1.23257324916637
C           -5.78871220330426       -0.12570007926984        1.23137697599045
C           -5.06675642053429        0.07738443880084        0.04646001086980
C           -3.61107171646811        0.09424889777272        0.05214030488044
C           -2.88734286951828       -1.01034651410856        0.60592102856132
C           -3.53689641912152       -2.15800318448295        1.06645905669856
C           -2.83726744186100       -3.19328075639804        1.68176155044461
C           -1.47416361978051       -3.08883287276812        1.85414055202491
C           -0.79449077062982       -1.98302355649115        1.35023890887996
C           -1.46332782094194       -0.96236528090151        0.66923610696730
C           -0.76064857231821        0.12864600412298        0.06840674756503
C            0.69882075360220        0.14797613357130        0.07759114693300
C            1.38757313314433        1.25231042686748        0.61317405625516
C            2.76305264273265        1.31348687184143        0.64863547686909
C            3.47955807649126        0.25136204633917        0.10970388353977
C            2.80920702408156       -0.87827207461893       -0.41759464491844
C            1.42651866727437       -0.92888153577995       -0.42952532252178
C            3.83139075512728       -1.79524194319375       -0.84251082111769
C            3.80109832882329       -3.04719937024111       -1.44069495000746
C            4.99956290233835       -3.66363729471712       -1.74266001730857
C            6.21476491771470       -3.04093093682991       -1.46799200162466
C            6.26972587997864       -1.79531947502411       -0.87130396346886
C            5.06948775587595       -1.18174754399778       -0.54412152399393
N            4.83986872160312        0.05491308462568        0.02957008104919
C            5.82503886097594        0.96020134273370        0.45034233403091
C            5.77569604527635        2.28811167043777        0.03644557210243
C            6.74616515768035        3.17811854019226        0.45756818385766
C            7.77395739679677        2.75230448044326        1.28254826172284
C            7.82626477617849        1.43009119090310        1.69173724382139
C            6.85502831532360        0.53465624475707        1.28404139871161
C           -1.48312420895695        1.20106544955536       -0.54214206087498
C           -0.83046268608105        2.23606117105880       -1.21702894656620
C           -1.53010349149259        3.32420066722697       -1.73177349381060
C           -2.89715356810876        3.39690572801045       -1.57472808175977
C           -3.57938761621975        2.34660396956094       -0.96549884566173
C           -2.90834475289971        1.21519521398337       -0.49553041109170
C           -5.78413452568616        0.26339283211935       -1.14402722212628
C           -7.15957507498503        0.23931671191640       -1.15577034916110
H           -7.71156572744034       -0.27314039070388        2.15369608840240
H           -5.24996216901397       -0.24125331584837        2.16066545754416
H           -4.60442758977849       -2.25373523855836        0.94017097963389
H           -3.37166999389131       -4.06384586324851        2.03115290241073
H           -0.92366977492661       -3.86525151299466        2.36415713500699
H            0.27264945486834       -1.91354315014016        1.49517230547140
H            0.81086447842783        2.05745885886357        1.04430376257785
H            3.26622472018483        2.15635289351277        1.09814220612165
H            0.91269022660966       -1.77689142384357       -0.85676109621125
H            2.85857026823506       -3.52196811290216       -1.66774957690858
H            4.99932031795028       -4.63825942329819       -2.20723550306392
H            7.13543343422636       -3.54086435184574       -1.72998009298542
H            7.21643950125898       -1.31408934933950       -0.67779364691662
H            4.98551412655844        2.61059255156946       -0.62507954382563
H            6.70387351773020        4.20720387439980        0.13307431997474
H            8.53219639808149        3.44913823049247        1.60591429838431
H            8.62323991300778        1.09522237241144        2.33886267775449
H            6.87935086883727       -0.49150153350837        1.61919931692077
H            0.23990420626855        2.19151775353285       -1.34702300438048
H           -0.99272604055780        4.11244349776219       -2.23769884056304
H           -3.44777144734535        4.25411150248818       -1.93190718245839
H           -4.65026210092354        2.41742786801847       -0.85193918314898
H           -5.24116057309668        0.39112164245154       -2.06924009653385
H           -7.70277358086355        0.36553327952715       -2.08111957915868
