107
 energy: -163.630927507523 gnorm: 0.000072185304 xtb: 6.7.1 (edcfbbe)
C           -7.28867360977504        6.56140330970486       -0.49365202208338
C           -8.17081283976281        5.57638451963238        0.27814222512671
C           -9.59321938840929        5.65869346960650       -0.29369710706830
C           -8.17914606289195        5.99742613888906        1.75458529629793
C           -7.67731496293244        4.14241562092576        0.17405846512879
C           -6.54731449482608        3.77795295299683       -0.54851547558043
C           -6.13142108312636        2.46193534104054       -0.62460801742926
C           -6.83310894265432        1.45742220100451        0.03413779480747
N           -6.42091288184656        0.11908877027090       -0.04360594259560
C           -5.07424801295580       -0.20852713350354       -0.00590851033362
C           -4.59113238719728       -1.32671589105141       -0.69297007686370
C           -3.25901012456219       -1.66658056503276       -0.63391894704161
C           -2.35439243639241       -0.89730818874525        0.09932872713224
C           -0.93643695994634       -1.25070131758208        0.16614018419381
C            0.03903735195201       -0.28844999258760        0.05358703516659
C            1.40368393773159       -0.62493315176205        0.10017747128510
N            2.33218260860657        0.33702710270819       -0.02017299580431
C            3.60027323356526       -0.02186108388985        0.01745865469688
C            4.61948385613440        0.99408807428170       -0.10252047614124
C            4.30086301724296        2.34680954982709       -0.26264579629743
C            5.31404885749901        3.27190326351384       -0.36021927122158
C            6.64505254735169        2.82860412234317       -0.28912246166575
C            7.79140623329846        3.74419230569497       -0.37339080886153
C            7.69760895507168        5.10743547823611       -0.09810413885417
C            8.83986701493184        5.88430431245564       -0.20609487582232
N           10.02122812029584        5.40659406345929       -0.55558716164942
C           10.11462245721426        4.11070283779468       -0.80714405601426
C            9.04271792441497        3.23935207725466       -0.73108529018440
N            6.94886184549356        1.54778899568546       -0.15706904756478
C            5.98331950765213        0.64402204349718       -0.06742659511653
C            6.37189541836187       -0.75108580250168        0.07253791188230
N            7.66673626090434       -1.03430038057103        0.07167918893279
C            8.06895462012230       -2.28811104230342        0.20054444718534
C            9.52438490497511       -2.48979266743907        0.18000783568339
C           10.36662870626282       -1.40875147469813        0.44600769217939
C           11.73512730181455       -1.61006722789344        0.42297174980083
N           12.29679133527286       -2.77888523800619        0.15877181361795
C           11.50135636432531       -3.80089322410896       -0.10352317831619
C           10.11825816281703       -3.71742666019976       -0.10860547673195
C            7.15875270780117       -3.34589886971669        0.36213467323805
C            5.81158186686296       -3.06876378643927        0.35859028762887
C            5.38337856089097       -1.74603773251157        0.20196860970479
C            3.98409913769866       -1.39283291370846        0.17804060870765
N            3.08021067622735       -2.34572233495121        0.30262785645227
C            1.78923246529904       -1.99061930973312        0.26821177225608
C            0.78815451438650       -2.97013631075113        0.40817119227807
C           -0.53817961509767       -2.60960283998151        0.36086155128993
C           -1.50463847842021       -3.61931133234227        0.58425467857917
N           -2.24270464929920       -4.46921868064117        0.80371892970216
C           -2.83303376448221        0.23416728699501        0.76210341636796
C           -4.16687893356845        0.56939962506034        0.72104049271705
C           -7.39399255452910       -0.88701222892109       -0.15343244117064
C           -8.52886080932331       -0.69311562751819       -0.93341442307094
C           -9.49312651281488       -1.67899029624878       -1.03043408239156
C           -9.36137899724726       -2.89196251676416       -0.36486303325804
C          -10.39403860033083       -4.00403490363208       -0.45036506500489
C          -10.92746025950051       -4.30178164508546        0.95819129306257
C           -9.72866136460738       -5.26015196977526       -1.03029831473385
C          -11.58280533737896       -3.63787483919063       -1.34307746302602
C           -8.21877875435878       -3.07314959488599        0.41235933623809
C           -7.25339466148931       -2.09518954946301        0.52557845502261
C           -7.96674106043931        1.80988438482487        0.76280012791485
C           -8.37493592849601        3.12556652542690        0.82339823896099
H           -7.27046363639143        6.32280328535990       -1.55455975604935
H           -7.68751175309376        7.56776461609567       -0.38320063866107
H           -6.27121896475574        6.56006143639409       -0.10949242474625
H          -10.28039710960517        5.02483305278759        0.25973568465533
H           -9.95859863706480        6.68221055636959       -0.24352875762870
H           -9.59887950708102        5.34077303209116       -1.33431095720403
H           -8.84202101978130        5.36893004238670        2.34265331150831
H           -7.17751503153577        5.92159724693246        2.17283483563545
H           -8.51518839681690        7.02789463076135        1.84836681162141
H           -5.97108439167421        4.51894943267595       -1.07793105368260
H           -5.25637469284450        2.20703461171162       -1.20501624143555
H           -5.27209934969850       -1.92328738911859       -1.28084875983350
H           -2.90872298273220       -2.51992585969005       -1.19530508455840
H           -0.22215052841482        0.74748583630332       -0.09795207391826
H            3.26107530296117        2.63289428618301       -0.30828937109680
H            5.08826312124163        4.31644873442354       -0.50554680421300
H            6.76791338483484        5.55772102266133        0.21319769911028
H            8.80895338173380        6.94669948322516       -0.00058641326516
H           11.10068944464046        3.76045540410509       -1.08329964220922
H            9.14722488150676        2.18688616994015       -0.93899515344994
H            9.93544285093494       -0.44480634584819        0.66217266773744
H           12.42250784207759       -0.79911242515404        0.62590309621930
H           12.00080549522523       -4.73593671198746       -0.32283574631995
H            9.52775414438974       -4.58680092223244       -0.35240186039407
H            7.50788473222754       -4.35647530556541        0.50330386348482
H            5.06996620598489       -3.84423658982069        0.47585579392552
H            1.08300772818037       -3.99723176381136        0.56225343892963
H           -2.15272395585548        0.83169363037842        1.35121017831834
H           -4.52398001945092        1.43045832935131        1.26612718735908
H           -8.65441232819782        0.23735221019850       -1.46809587169044
H          -10.35355536389876       -1.48172713427338       -1.64856592409434
H          -11.38063648011316       -3.40935512077771        1.38513323376833
H          -11.68144187276779       -5.08489688192690        0.91527564768666
H          -10.13286525610198       -4.63111922673676        1.62169232088411
H           -9.33151906021227       -5.05139517331571       -2.02159213760092
H           -8.91155036277706       -5.60232510155230       -0.40158195581105
H          -10.45577117362595       -6.06527358459631       -1.11233111968182
H          -11.26094554560134       -3.44264638250852       -2.36341554393647
H          -12.10607112191925       -2.76465249907692       -0.96023832815651
H          -12.28683375278319       -4.46724298108321       -1.36651113170346
H           -8.07253164907034       -3.99525065035681        0.95375745271450
H           -6.38400767606283       -2.26308659319057        1.14437460671051
H           -8.52438184548570        1.04424344942632        1.28217720685485
H           -9.25734642060531        3.35812138029179        1.40004853671744
