101
 energy: -152.411216803863 gnorm: 0.000079080981 xtb: 6.7.1 (edcfbbe)
C           -5.86143192547861       -6.73811328289948       -1.11234273288899
C           -6.93536967040743       -5.86903164445814       -0.44242524717165
C           -8.20721600389310       -5.94180448336252       -1.29148401845049
C           -7.25819159996485       -6.42468263560387        0.95213988054172
C           -6.40655757445233       -4.45186915807030       -0.30049134051940
C           -7.01964401022821       -3.34877930359790       -0.88502430346248
C           -6.50821811862671       -2.07402325046662       -0.73761864035830
C           -5.35552923743638       -1.85471035312676        0.01298600490528
N           -4.83147279933322       -0.57045576739453        0.17145008286336
C           -3.45175058662667       -0.37004672581171        0.20733993440531
C           -2.59379019594973       -1.12210080659740       -0.59667643742671
C           -1.24294351312138       -0.84680360220208       -0.61804851030110
C           -0.71235802193011        0.18952349890886        0.14728030793992
C            0.69908179814274        0.57382252186730        0.02211447142913
C            1.69547443947976       -0.38681123889654        0.12384422800210
C            3.04393488391620       -0.05316354921053        0.05034353173292
N            4.01636650624501       -0.95792631886965        0.15472843404795
C            5.29711696522931       -0.62415993734596        0.09178961628307
C            6.32202667372656       -1.61067427085258        0.21158417458814
C            5.95310730556980       -2.95527854104157        0.40115054996766
C            6.89665544075137       -3.93623988113102        0.52337164538950
C            8.25850939433639       -3.58906943119431        0.45768802329180
C            9.24354111704272       -4.59245198183697        0.58349174125670
N           10.04067970618918       -5.41103381306408        0.68685872884400
C            8.64015020726549       -2.27009020574586        0.27101255207898
C            7.69115816568243       -1.25186994423083        0.14349388912401
C            8.05251745547312        0.13420802133912       -0.05216914108180
C            9.37966035145923        0.56550222074121       -0.13273377849724
C            9.69071875729275        1.90264986510724       -0.32080265884987
C           11.04231323336766        2.30325308865259       -0.39731102882261
N           12.13943884257252        2.63266168132780       -0.46008169529642
C            8.67026579621496        2.86421612181982       -0.43601671495714
C            7.36608263964808        2.46279451773197       -0.35997334427871
C            7.03143668144358        1.10957921245022       -0.16921417599677
C            5.65321154403860        0.74294277564935       -0.09702005720563
N            4.69729566641536        1.65380676346926       -0.20138299413651
C            3.40488855054410        1.33332054739004       -0.13798368301587
C            2.39048524332050        2.27779750811978       -0.25268896919800
C            1.04986988045377        1.92138875325105       -0.18411349245960
C            0.01848362350315        2.95094954550860       -0.36422180379264
C            0.06858194080770        4.16212232835165        0.32255962839179
C           -0.94942969541259        5.08345094005168        0.14661261507808
C           -1.99079051865199        4.76042470522484       -0.70897230165054
N           -2.03515244199626        3.63037303463441       -1.39672128569524
C           -1.05731080917700        2.76225553418773       -1.23728895350512
C           -1.56323333071532        0.88806202558495        1.00492420952054
C           -2.91058688368533        0.61309308943488        1.03915085430381
C           -5.68078947736963        0.53893381437607        0.25279864813267
C           -5.32182436010485        1.75504598483825       -0.33020082777063
C           -6.16071371579713        2.84385772450133       -0.23484496398738
C           -7.38401427126956        2.77649707458345        0.43149413045117
C           -8.26685977464952        4.01076944909414        0.50469068687890
C           -8.63523653485169        4.44604191438288       -0.92089016209240
C           -7.49426967389644        5.13588459263983        1.20797403272252
C           -9.56380969347571        3.76447955560854        1.28002147878648
C           -7.73197410334324        1.55729424251711        1.00295871699470
C           -6.89978050336940        0.45726734077620        0.92099585962207
C           -4.73273223636910       -2.95304542186198        0.60652952585178
C           -5.25184344200601       -4.21933882987989        0.44594120840400
H           -5.61190278484934       -6.33825973490028       -2.09303600483518
H           -6.22785918804648       -7.75462228207847       -1.23743714741355
H           -4.95276651039647       -6.77532560049016       -0.51803411643579
H           -8.53929590324584       -6.97578676079425       -1.35720272773657
H           -9.01030739449550       -5.35984455406969       -0.84523319557804
H           -8.02497144734475       -5.58390128442909       -2.30213428034872
H           -7.65530376770563       -7.43396186305984        0.86926829917925
H           -6.37316307724446       -6.45868001728828        1.58123566744706
H           -8.00207765718527       -5.80045696885577        1.44293119646088
H           -7.91062168061805       -3.46757509227198       -1.47916836018301
H           -6.99771955068207       -1.23867633199455       -1.21639857472382
H           -3.00042023336074       -1.89658437867229       -1.23005858836359
H           -0.59368605072970       -1.40602467698928       -1.27564983888358
H            1.43525998956847       -1.42053018601551        0.29265005145697
H            4.90003334588678       -3.18652307062897        0.44731717985697
H            6.61614449353930       -4.96848645251711        0.66914009712613
H            9.69538433181355       -2.05044083047175        0.22715134393595
H           10.19458965524585       -0.13646791665591       -0.05021773009634
H            8.92950858186161        3.90187530986278       -0.58256479595631
H            6.55880249506158        3.17389834455036       -0.44486173651439
H            2.67197219986253        3.30508778356360       -0.42753753420904
H            0.88420767522800        4.36364772948409        1.00291003618116
H           -0.94010718531901        6.02666063694521        0.67093825854419
H           -2.82315370607148        5.43459486210605       -0.86164698317157
H           -1.12402288398671        1.86736966839889       -1.84243688583304
H           -1.15769335758225        1.64978666698309        1.65413641367558
H           -3.56152857471356        1.16454378407886        1.70106608566188
H           -4.38657293498541        1.84564797992450       -0.86282875472632
H           -5.84664113084583        3.76357720798260       -0.70328228707716
H           -9.16742506566991        3.64673470630520       -1.43246128093681
H           -7.75067012827316        4.69215301382646       -1.50137780626290
H           -9.27778832798493        5.32326465873706       -0.88956745881973
H           -7.21097298386311        4.82704745316849        2.21216142576701
H           -8.11560017563743        6.02564579618587        1.28316607970902
H           -6.59079863972233        5.39653753338521        0.66403722290346
H           -9.35717902582786        3.47520203525344        2.30787753634002
H          -10.16397436688833        2.99194136530087        0.80493496754247
H          -10.15190216686316        4.67962140593245        1.30127428555686
H           -8.66222431486076        1.44585182648962        1.53530696165660
H           -7.18955002529509       -0.47294344035453        1.38786902484171
H           -3.84450854615610       -2.80281950126217        1.20271296054470
H           -4.74308500722048       -5.04202897169556        0.92471111943111
