107
 energy: -163.593090088536 gnorm: 0.000047024435 xtb: 6.7.1 (edcfbbe)
C           -7.22001456494220        6.57751782466582       -0.47207420453188
C           -8.13212540214322        5.60029865600949        0.27421896430518
C           -9.54149070601919        5.70691226307019       -0.32553664419788
C           -8.16435626281205        6.01007010521278        1.75366499340467
C           -7.65791223625489        4.16066013452428        0.16976557251298
C           -6.51703866974212        3.78498249836191       -0.53122895230083
C           -6.11718462974695        2.46481604487992       -0.60692638713970
C           -6.84930408022130        1.46414990509356        0.02749784801252
N           -6.44931521245521        0.12634214270369       -0.04631738237299
C           -5.09627727007717       -0.20471666190075       -0.01856891768746
C           -4.61584903002391       -1.28951994142721       -0.75611469643082
C           -3.28339100857959       -1.63338014027718       -0.70672857263243
C           -2.38396036547419       -0.90281641876528        0.06997813500419
C           -0.96775238846240       -1.27469968825021        0.13634992791781
C            0.01858366486776       -0.30564351823896        0.03600790612251
C            1.37522398448854       -0.62667888975752        0.07953905303745
N            2.32453358360349        0.29729060485378       -0.02616424759223
C            3.61521775538812       -0.01836977474038        0.01023992066563
C            4.62108475411153        0.98190217701288       -0.10257238986932
C            4.29748112985269        2.34093209060225       -0.26269408341882
C            5.29975939635883        3.26950744789197       -0.35814601994860
C            6.64172809128242        2.83871767668849       -0.29082841081941
C            7.77690321977730        3.76436834099340       -0.37794809966397
C            7.66407936349261        5.13573012096634       -0.15032866043751
C            8.79957621538028        5.92165409274311       -0.25751387015776
N            9.99440013661422        5.44710707922973       -0.56340729384127
C           10.10689587586227        4.14431624407306       -0.77008730841690
C            9.04325962535501        3.26444309793202       -0.69070788548146
N            6.95217970027966        1.56278875962106       -0.15898453301047
C            5.99737057367149        0.64756172673165       -0.06667481060551
C            6.38408169667761       -0.73591090631982        0.07588744042935
N            7.67742792991867       -1.03072500706619        0.08879175225586
C            8.07279518390556       -2.28310546977995        0.21715217718991
C            9.52536431373908       -2.49521632129828        0.21207520056080
C           10.37405473918937       -1.41471320543508        0.46289490716378
C           11.74084341251016       -1.62458562963562        0.45481850913881
N           12.29754917362653       -2.80222324179404        0.21915789406663
C           11.49728843715173       -3.82423765077973       -0.02840740383556
C           10.11521476373296       -3.73208488962864       -0.04629908507590
C            7.14995221154195       -3.33934406616500        0.36437506644923
C            5.80901040393463       -3.05683159447266        0.35129054367760
C            5.38101795031977       -1.72779236194533        0.19518486858342
C            3.99656983494072       -1.38669577604571        0.16547824115484
N            3.06012318821022       -2.31642897196392        0.27628118012500
C            1.76088301971258       -2.01154578420556        0.24258731065336
C            0.76630669369685       -2.97276203596264        0.36303161809890
C           -0.58270828356134       -2.61921382499815        0.31078695897033
C           -1.54422907453827       -3.63099464772623        0.50447432126291
N           -2.29824395426343       -4.47767071221772        0.68966605528146
C           -2.86199593532345        0.19669376682869        0.78321294676381
C           -4.19581376695618        0.53846703125496        0.74883736940342
C           -7.41426652372853       -0.88267134841234       -0.14412060230621
C           -8.57519715464798       -0.68812347470283       -0.88804829053723
C           -9.52617050669497       -1.68610109813223       -0.98102003899580
C           -9.35862097287938       -2.91199447050678       -0.34600286962412
C          -10.37561902811618       -4.03732698316636       -0.43040211988366
C          -10.86293597052156       -4.37899080786427        0.98504312092941
C           -9.70635865293149       -5.26703102788864       -1.06062206247694
C          -11.59513404696838       -3.66831019583770       -1.27934103666883
C           -8.19162600179167       -3.09337226413879        0.39573848127740
C           -7.23683082132770       -2.10556431406930        0.50274927768988
C           -7.99477750204991        1.82827327535451        0.73475689908305
C           -8.38392839599186        3.14888775905942        0.79724847322453
H           -7.18401318738018        6.34709036672524       -1.53432347479073
H           -7.60625196906073        7.58862819285207       -0.36169377462095
H           -6.21074399113788        6.55871408895697       -0.06743532184091
H          -10.24938864743459        5.07996020298572        0.20932725479371
H           -9.89211677915695        6.73537409128828       -0.27501360828469
H           -9.53089867926231        5.39694562482916       -1.36848213179194
H           -8.84911288836894        5.38836441212077        2.32356739557875
H           -7.17288968338840        5.91604510619153        2.19183735819980
H           -8.48614708497136        7.04488206907853        1.84762626645535
H           -5.91999646931699        4.52171464668649       -1.04281531842302
H           -5.23454702344895        2.20117575234629       -1.17126517379982
H           -5.29658462465187       -1.85529352787626       -1.37419955033808
H           -2.92993356799304       -2.46409208464749       -1.29842139448951
H           -0.25102135409690        0.72962300212887       -0.10561897462099
H            3.25490773323237        2.62024660237550       -0.30962200238110
H            5.06521646274637        4.31233641640972       -0.50109406758259
H            6.72322413429196        5.58754737976200        0.12292433731080
H            8.75185335915635        6.98994880847332       -0.08817902152330
H           11.10284733692108        3.79647183505365       -1.01208784047828
H            9.16380780713654        2.20727781292345       -0.86291622646599
H            9.94738607730363       -0.44400202272154        0.65646331121249
H           12.43177221197659       -0.81388628369606        0.64678791971302
H           11.99223576485438       -4.76700867171597       -0.22412333429073
H            9.52229834016125       -4.60367070837546       -0.27595214072513
H            7.49257878133669       -4.35226994176683        0.50356746655698
H            5.06262681844428       -3.83016581485944        0.46075769862748
H            1.05219245941879       -4.00373724538768        0.50441688495068
H           -2.18280006207463        0.76482492990974        1.40158286397044
H           -4.55658100704234        1.37312010201535        1.33164146857252
H           -8.72582983206838        0.24891682671098       -1.40422295493025
H          -10.40500946148029       -1.48996329879681       -1.57282524559162
H          -11.31606211662960       -3.50498998497363        1.44855668781966
H          -11.60690688121860       -5.17140418974083        0.94243787952833
H          -10.04524891255874       -4.71465897439907        1.61642253382341
H           -9.34259496777469       -5.02766531464930       -2.05774683114246
H           -8.86552740545566       -5.61069194986360       -0.46495383606635
H          -10.42248986722643       -6.08185717150225       -1.14112533584077
H          -11.30652108683655       -3.44388196178447       -2.30360227769989
H          -12.12073722334768       -2.81332115501756       -0.86021718725801
H          -12.28651446771294       -4.50804390069756       -1.30285539165902
H           -8.01772431286096       -4.02453842940276        0.91228548808459
H           -6.34893579575808       -2.27402354913841        1.09403193127733
H           -8.57090415025766        1.06823304680886        1.24178720454797
H           -9.27341985326871        3.39076114040851        1.35862422171528
