  101
       -152.40534587
 C         -5.8675172080       -6.7408032090       -1.1061396297
 C         -6.9512106755       -5.8689983558       -0.4556527586
 C         -8.2072142620       -5.9371076619       -1.3282011283
 C         -7.3011860004       -6.4245576859        0.9323388110
 C         -6.4202884384       -4.4539561014       -0.3033380836
 C         -7.0189670539       -3.3483826898       -0.8985406402
 C         -6.5045360622       -2.0758731363       -0.7438986854
 C         -5.3624586062       -1.8614944345        0.0247342165
 N         -4.8295382502       -0.5823596986        0.1868903966
 C         -3.4473879690       -0.3975909140        0.2395943659
 C         -2.5894510034       -1.1522495157       -0.5620847237
 C         -1.2378329364       -0.8811731006       -0.5780558240
 C         -0.7067560544        0.1520197011        0.1919095465
 C          0.7013844013        0.5432992004        0.0604296883
 C          1.7042106370       -0.4130071393        0.1428693965
 C          3.0507105853       -0.0698588441        0.0616971139
 N          4.0281255038       -0.9688768435        0.1507718428
 C          5.3043838942       -0.6254759423        0.0864622947
 C          6.3377267067       -1.6042965448        0.1975318578
 C          5.9790822052       -2.9534537324        0.3745440367
 C          6.9298856703       -3.9274950205        0.4930771532
 C          8.2898169547       -3.5684103934        0.4368208162
 C          9.2810866778       -4.5650441092        0.5622258957
 N         10.0829664822       -5.3793917001        0.6651085342
 C          8.6612000480       -2.2449876597        0.2608853196
 C          7.7047023145       -1.2336444043        0.1363410885
 C          8.0553738665        0.1563349418       -0.0483808772
 C          9.3788492099        0.5997268310       -0.1197288396
 C          9.6795397118        1.9407678051       -0.2978799159
 C         11.0276866274        2.3534416239       -0.3618325406
 N         12.1227123646        2.6928254426       -0.4127463507
 C          8.6511056102        2.8944703331       -0.4142866485
 C          7.3503071103        2.4814172222       -0.3462814561
 C          7.0263583417        1.1245820891       -0.1629805576
 C          5.6506633185        0.7479857875       -0.0923564142
 N          4.6895401397        1.6518659056       -0.1850140933
 C          3.4015004284        1.3215161758       -0.1156840930
 C          2.3797178780        2.2612859454       -0.2129823192
 C          1.0419211771        1.8955881987       -0.1354589218
 C          0.0028267913        2.9199850248       -0.2961068920
 C          0.0517064380        4.1251018097        0.4018222467
 C         -0.9749962316        5.0403509139        0.2465019115
 C         -2.0240201327        4.7179035421       -0.5998968976
 N         -2.0674876830        3.5946947049       -1.2991756998
 C         -1.0808615074        2.7330099007       -1.1600887262
 C         -1.5573034930        0.8449396816        1.0554225853
 C         -2.9058304580        0.5759581692        1.0823504304
 C         -5.6632184207        0.5393966973        0.2371416901
 C         -5.2663456294        1.7475685957       -0.3390198626
 C         -6.0909689940        2.8491131539       -0.2766910718
 C         -7.3375117278        2.8034829994        0.3474712811
 C         -8.2035230409        4.0510032954        0.3831233060
 C         -8.4982185032        4.4965978209       -1.0562777106
 C         -7.4451156248        5.1608496278        1.1248228909
 C         -9.5390608852        3.8239305806        1.0961050706
 C         -7.7219975273        1.5931228942        0.9149158740
 C         -6.9044042101        0.4803618269        0.8667277366
 C         -4.7548996387       -2.9623286798        0.6303196606
 C         -5.2774167393       -4.2260505209        0.4629280747
 H         -5.5972973571       -6.3401120399       -2.0809107628
 H         -6.2354467095       -7.7555402987       -1.2405226562
 H         -4.9708599927       -6.7830496779       -0.4943183527
 H         -8.5408642379       -6.9700456625       -1.4012598502
 H         -9.0169359618       -5.3534883392       -0.8963834180
 H         -8.0051444405       -5.5787792075       -2.3348981432
 H         -7.6993908589       -7.4326692912        0.8412243933
 H         -6.4281426402       -6.4614873904        1.5777244466
 H         -8.0524277975       -5.7987195094        1.4095398847
 H         -7.9003512606       -3.4639343777       -1.5073476624
 H         -6.9810638032       -1.2391304570       -1.2331344465
 H         -2.9973041456       -1.9213452916       -1.2012352488
 H         -0.5884361876       -1.4382428984       -1.2371419360
 H          1.4525219457       -1.4498691663        0.3051381603
 H          4.9273729949       -3.1922330451        0.4133406347
 H          6.6576906467       -4.9633365947        0.6288815020
 H          9.7147969140       -2.0161618271        0.2238547045
 H         10.1995119039       -0.0956151036       -0.0375727262
 H          8.9023195279        3.9349928791       -0.5545770210
 H          6.5363320024        3.1849128935       -0.4307725960
 H          2.6538682833        3.2915593879       -0.3816058206
 H          0.8732947890        4.3257162254        1.0751449936
 H         -0.9667620619        5.9783549113        0.7801211391
 H         -2.8633460555        5.3870863343       -0.7354799683
 H         -1.1466778705        1.8445306885       -1.7748901178
 H         -1.1505738986        1.5993529840        1.7122115640
 H         -3.5577545389        1.1253564495        1.7450517699
 H         -4.3135727820        1.8227289586       -0.8418229910
 H         -5.7465472884        3.7610572725       -0.7386018497
 H         -9.0156834592        3.7063465551       -1.5960869665
 H         -7.5847164386        4.7344703057       -1.5936698283
 H         -9.1306563331        5.3816762807       -1.0510131629
 H         -7.2151934524        4.8458908418        2.1405741664
 H         -8.0530772465        6.0617859777        1.1723672716
 H         -6.5125805793        5.4050228720        0.6242105697
 H         -9.3863386339        3.5341986538        2.1331441781
 H        -10.1257826261        3.0584687785        0.5936613565
 H        -10.1151927190        4.7468613996        1.0877945300
 H         -8.6705869861        1.4992430709        1.4174226019
 H         -7.2221934815       -0.4415479813        1.3318267430
 H         -3.8758704794       -2.8152757656        1.2406476272
 H         -4.7808320144       -5.0506295742        0.9509547900
