  107
       -163.58761351
 C         -7.1439850835        6.6562177648       -0.2529764979
 C         -8.0697330614        5.6636790612        0.4552617943
 C         -9.4741559771        5.8016287993       -0.1497354372
 C         -8.1086876564        6.0254226997        1.9470565787
 C         -7.6075127346        4.2240903850        0.3075408593
 C         -6.4667160441        3.8602214939       -0.4000299912
 C         -6.0776489989        2.5396619334       -0.5146689703
 C         -6.8214936318        1.5263755617        0.0854927776
 N         -6.4349523080        0.1876241098       -0.0268866863
 C         -5.0862906960       -0.1605800790       -0.0011058867
 C         -4.6165209366       -1.2365388313       -0.7585280840
 C         -3.2878454136       -1.5955298338       -0.7138745328
 C         -2.3815545764       -0.8882778069        0.0763484402
 C         -0.9682268781       -1.2730707349        0.1352112852
 C          0.0250196547       -0.3123439746        0.0349553846
 C          1.3804641206       -0.6470590617        0.0724516918
 N          2.3340707823        0.2709322373       -0.0371390169
 C          3.6206872777       -0.0587456816       -0.0041209237
 C          4.6348694942        0.9307913346       -0.1236451451
 C          4.3250223085        2.2927108117       -0.2899642424
 C          5.3348707263        3.2115572415       -0.3921571410
 C          6.6742674684        2.7693724981       -0.3259236642
 C          7.8183731650        3.6819978802       -0.4179627062
 C          7.7182143742        5.0582318655       -0.2127792317
 C          8.8627137193        5.8306354651       -0.3200553368
 N         10.0550143196        5.3382508678       -0.6060846914
 C         10.1565759943        4.0316697088       -0.7926470480
 C          9.0829872392        3.1647148175       -0.7110903530
 N          6.9707425239        1.4907276617       -0.1882627095
 C          6.0094365859        0.5846103373       -0.0888152575
 C          6.3838667997       -0.8010171912        0.0620254736
 N          7.6740008971       -1.1065861710        0.0782971465
 C          8.0617430123       -2.3603616705        0.2151606159
 C          9.5129701121       -2.5795036763        0.2126392503
 C         10.3663791694       -1.4954397259        0.4325933960
 C         11.7322989883       -1.7091023589        0.4255169499
 N         12.2837645475       -2.8945548988        0.2192655379
 C         11.4804082333       -3.9208686490        0.0021845449
 C         10.0986260062       -3.8248426049       -0.0137913613
 C          7.1299226414       -3.4085957597        0.3669703044
 C          5.7911912929       -3.1152297826        0.3500242136
 C          5.3723054730       -1.7845914342        0.1862803065
 C          3.9897263020       -1.4329810210        0.1545355795
 N          3.0491982284       -2.3551674987        0.2669360857
 C          1.7530104179       -2.0349773291        0.2333261977
 C          0.7499959039       -2.9889399935        0.3529980115
 C         -0.5959833660       -2.6227890469        0.3031516367
 C         -1.5702955853       -3.6219584444        0.4926847816
 N         -2.3405542759       -4.4554503507        0.6719169646
 C         -2.8491205061        0.2015175158        0.8111169021
 C         -4.1794145284        0.5570913097        0.7831199423
 C         -7.4132313246       -0.8042140695       -0.1588827984
 C         -8.5633362154       -0.5713734666       -0.9091047919
 C         -9.5307720892       -1.5493503005       -1.0346094948
 C         -9.3916078088       -2.7923400985       -0.4260964958
 C        -10.4293986718       -3.8952121017       -0.5449772038
 C        -10.9356923591       -4.2589029674        0.8582664578
 C         -9.7788032840       -5.1233099306       -1.1972204855
 C        -11.6338932319       -3.4827257680       -1.3954927625
 C         -8.2347694893       -3.0124562917        0.3213251202
 C         -7.2628425298       -2.0453581655        0.4595849253
 C         -7.9676222143        1.8786253771        0.7982396747
 C         -8.3455918021        3.1998103173        0.8999199644
 H         -7.1032123287        6.4605966548       -1.3220169499
 H         -7.5217463681        7.6666631695       -0.1117284990
 H         -6.1376026375        6.6147267623        0.1571108909
 H        -10.1912643672        5.1649852871        0.3608543479
 H         -9.8157913899        6.8312370612       -0.0696147019
 H         -9.4595073654        5.5241294776       -1.2017604401
 H         -8.8026453186        5.3918857598        2.4921946562
 H         -7.1210784293        5.9085851999        2.3884126303
 H         -8.4221041329        7.0594638776        2.0723664349
 H         -5.8610314135        4.6073314640       -0.8856707846
 H         -5.1951184256        2.2856609825       -1.0834939425
 H         -5.3022150064       -1.7824695132       -1.3888724201
 H         -2.9422984680       -2.4197853731       -1.3190625292
 H         -0.2350828251        0.7258956964       -0.1029262241
 H          3.2843526960        2.5792932829       -0.3356596284
 H          5.1097564885        4.2558324884       -0.5393095517
 H          6.7796610945        5.5244425844        0.0432797551
 H          8.8247335742        6.9018526164       -0.1677850108
 H         11.1513787190        3.6699763713       -1.0186978560
 H          9.1945752086        2.1039941434       -0.8668098039
 H          9.9433494640       -0.5186933713        0.6021504656
 H         12.4263678104       -0.8956966834        0.5933401373
 H         11.9721116782       -4.8699249518       -0.1675300666
 H          9.5029450901       -4.7010596914       -0.2161590421
 H          7.4641548356       -4.4234774169        0.5116512919
 H          5.0374974233       -3.8810402012        0.4621832925
 H          1.0276678752       -4.0224724504        0.4919186931
 H         -2.1638339550        0.7511279194        1.4393465828
 H         -4.5320674933        1.3837522759        1.3820104872
 H         -8.6916379545        0.3800420561       -1.4045958830
 H        -10.3996965197       -1.3240451346       -1.6305046259
 H        -11.3704669744       -3.3855537520        1.3402546121
 H        -11.6990449323       -5.0309315634        0.7907329234
 H        -10.1314042088       -4.6307460186        1.4866967535
 H         -9.4045955715       -4.8700233227       -2.1871423163
 H         -8.9478546338       -5.4949351028       -0.6041187104
 H        -10.5092810660       -5.9229250360       -1.2988531288
 H        -11.3319447596       -3.2403292428       -2.4118151396
 H        -12.1467997594       -2.6276682578       -0.9609889707
 H        -12.3409877457       -4.3080829684       -1.4445976388
 H         -8.0831840832       -3.9581113504        0.8182114786
 H         -6.3838380894       -2.2431737863        1.0550025065
 H         -8.5524307175        1.1083831094        1.2791777994
 H         -9.2356544564        3.4320359274        1.4643132558
