107
 energy: -163.593085434090 gnorm: 0.000169398513 xtb: 6.7.1 (edcfbbe)
C           -7.14392269095570        6.65938461676639       -0.26331362139487
C           -8.06518582686327        5.66996726320107        0.45513933269667
C           -9.47392475787715        5.80808077686989       -0.13964484142438
C           -8.09214757209582        6.03682801338044        1.94590902767824
C           -7.60569668851746        4.22926747789023        0.30798260281687
C           -6.47050308663436        3.86255983670778       -0.40685094318061
C           -6.08419859757730        2.54115190770654       -0.52178609578349
C           -6.82475883185308        1.53011189563683        0.08566514494489
N           -6.43898891025751        0.19051921178694       -0.02705950498229
C           -5.09024546509540       -0.15663139751952       -0.00551772884627
C           -4.62133413013239       -1.23201758272409       -0.76417992924228
C           -3.29269577097392       -1.59141030087997       -0.72149491928128
C           -2.38524223312817       -0.88479244027579        0.06772080631591
C           -0.97242837511369       -1.27119596063599        0.12583181752172
C            0.02255229242490       -0.31046027247083        0.03275044740235
C            1.37621447394349       -0.64464105142623        0.07057543298568
N            2.33385357504972        0.27094534905257       -0.03225574555239
C            3.62159719789371       -0.05681453277558        0.00035900181520
C            4.63639295126384        0.93417577553425       -0.11395838111963
C            4.32491359351315        2.29589165707779       -0.27531871299688
C            5.33545933779251        3.21491009174357       -0.37585241340051
C            6.67359978523005        2.77178429266399       -0.31247679594529
C            7.81711050217937        3.68621978780660       -0.40882493852087
C            7.71810501542579        5.06014901947885       -0.19040280870230
C            8.86048208812698        5.83457915614746       -0.30768346397965
N           10.04958242978467        5.34671224495359       -0.61493798138195
C           10.14905872696470        4.04147112671725       -0.81268352718431
C            9.07753913393054        3.17225744065542       -0.72289425472063
N            6.97255655229173        1.49343295059820       -0.17735288152049
C            6.00960253023560        0.58733229648686       -0.07993698773909
C            6.38381934767633       -0.79926389589484        0.06576677485555
N            7.67450320159186       -1.10527334586245        0.08231122130538
C            8.05881419120406       -2.36077858123436        0.21396980703502
C            9.50958983753964       -2.58505863149845        0.21446143919281
C           10.36640738450076       -1.51013180951696        0.46176122248030
C           11.73143186453432       -1.73126539296964        0.45956879646416
N           12.27920713308084       -2.91485039111746        0.23290222607591
C           11.47133796979899       -3.93168907891195       -0.01127914084438
C           10.09014213894979       -3.82825689849624       -0.03452824894412
C            7.12640431644175       -3.40877881035250        0.35978982435769
C            5.78798044557958       -3.11471056087603        0.34255131515367
C            5.37186610896432       -1.78218485180373        0.18415446827660
C            3.99046710195766       -1.42900108170880        0.15201449287064
N            3.04560186239832       -2.35072918291827        0.25763902842198
C            1.74908893463997       -2.03413409911644        0.22382328432036
C            0.74577471473189       -2.98735018787156        0.33507327057300
C           -0.59994663014623       -2.62096846404292        0.28561630504246
C           -1.57189944363011       -3.62507005795219        0.46670332870967
N           -2.33524507494956       -4.46596095638682        0.63974687503686
C           -2.85133507530678        0.20548789021836        0.80254763813846
C           -4.18162872740313        0.56124849787582        0.77644279431045
C           -7.41684531222856       -0.80255264026967       -0.15696736247478
C           -8.57093664469290       -0.57093272059180       -0.90089580231805
C           -9.53568403792928       -1.55202405363942       -1.02583978460085
C           -9.38920466499453       -2.79697889686795       -0.42356311775215
C          -10.42263300796617       -3.90410061855844       -0.54253459029562
C          -10.92566003966659       -4.27140849282495        0.86094163932107
C           -9.76816692115211       -5.12897827269468       -1.19717393793536
C          -11.62986105651552       -3.49597395044995       -1.39114700673441
C           -8.22892449869374       -3.01539266150605        0.31873775349582
C           -7.26039355329234       -2.04493472856916        0.45721654150124
C           -7.96493096438816        1.88503991401227        0.80595605690531
C           -8.34054583657735        3.20713627183289        0.90775381293851
H           -7.11132990126920        6.45995403697168       -1.33192152035740
H           -7.51970949010625        7.67069683905252       -0.12279441505004
H           -6.13450274253112        6.61837884836485        0.13930954839392
H          -10.18730598291703        5.17197741901618        0.37682087678292
H           -9.81471192183388        6.83783301718176       -0.05776896147104
H           -9.46708410982878        5.52959724529104       -1.19146340158549
H           -8.78358434612076        5.40658030354066        2.49807975540756
H           -7.10160207661322        5.91906846806148        2.38040360056856
H           -8.40229744952515        7.07200860485775        2.07014608617491
H           -5.86736054642805        4.60774774590140       -0.89865394867968
H           -5.20568858256029        2.28504386420381       -1.09594880138650
H           -5.30780827481529       -1.77815493205467       -1.39345948242093
H           -2.94828201056729       -2.41496827352071       -1.32837927205923
H           -0.23777017389977        0.72849495603951       -0.09896114254339
H            3.28482458075259        2.58469562631177       -0.31988381233330
H            5.11001184833481        4.25955186651455       -0.52012025865191
H            6.78265179112965        5.52286548387942        0.08313522614450
H            8.82344099454732        6.90447402218707       -0.14594065983083
H           11.14070844943344        3.68255321218614       -1.05617627153319
H            9.18742375571429        2.11283359905638       -0.88820372244331
H            9.94713990038573       -0.53481343119414        0.64819611864242
H           12.42836279458087       -0.92511942094021        0.64901615240273
H           11.95913552040551       -4.87971062764997       -0.19945058567299
H            9.49097894332568       -4.69642471848559       -0.26084357119981
H            7.45964884688319       -4.42451013055939        0.50120317015117
H            5.03470413175499       -3.88147332393901        0.45101774521834
H            1.02224675315114       -4.02210470887183        0.46723649254175
H           -2.16563853057323        0.75458443179288        1.43088989746600
H           -4.53320607305644        1.38747794051583        1.37656986574706
H           -8.70540354849575        0.38209201895726       -1.39165630475780
H          -10.40839684958777       -1.32710383719275       -1.61646141727625
H          -11.36986310122573       -3.40189196276578        1.34122633451985
H          -11.68044795996638       -5.05186581186939        0.79454062401152
H          -10.11756437234979       -4.63311627816544        1.49030828705207
H           -9.39144881472580       -4.87131105162075       -2.18487884212315
H           -8.93868933025933       -5.50147808838823       -0.60295312652868
H          -10.49700240552968       -5.92938926055556       -1.30405504639464
H          -11.32983632681599       -3.25069042242322       -2.40732181762833
H          -12.14606556870678       -2.64381296986952       -0.95495609728721
H          -12.33345069802368       -4.32437012049663       -1.44060990833636
H           -8.07145937515853       -3.96257124690752        0.81088030124867
H           -6.37823803210604       -2.24220976441942        1.04818251155917
H           -8.54759978031010        1.11635181607261        1.29205709041593
H           -9.22615468633152        3.44159049136949        1.47833753445278
