102
 energy: -163.512455464714 gnorm: 0.000068078241 xtb: 6.7.1 (edcfbbe)
C            6.65279317657827       -2.66635595897091       -2.09396002696073
C            7.57094922483599       -2.32342630613081       -0.95727919433792
C            8.79857588497682       -2.96947267175988       -0.86984262830972
C            9.69172565071917       -2.68890324411304        0.14688554805047
C            9.36392876562402       -1.74559928520563        1.10541110339226
C            8.15081359707322       -1.09027527447112        1.03127329735988
C            7.24672546810368       -1.36433789727043        0.00791314306901
C            5.96242124626413       -0.63666852725029       -0.01278269815268
C            4.77777727970510       -1.32821644215793        0.00515789799606
C            3.54314564200647       -0.65203677917371        0.02867871508625
N            2.39792202525509       -1.34842322748093        0.04605631355357
C            1.26493272099952       -0.67106400837634        0.07230150361319
C            0.01619926846732       -1.39713195763253        0.09778407190532
C            0.02957960850320       -2.79503383421520        0.05346315248336
C           -1.13892118013565       -3.51542561938731        0.06183389750951
C           -2.36092163899508       -2.84068201289448        0.14250172052769
N           -3.57141529552282       -3.56102202418364        0.14581413583699
C           -3.83475579699953       -4.50104758228779        1.14644518364689
C           -2.97409074858149       -4.70579389772526        2.21780789422118
C           -3.26253910759467       -5.65037972873279        3.19096356938752
C           -4.42134698224611       -6.39619863544699        3.11860183509210
C           -5.31072485081333       -6.17567160610215        2.07747639974658
C           -5.02860234050348       -5.23333488878255        1.10610215991170
O           -5.97462099034197       -5.04567435690106        0.12980892111156
C           -5.72444783721115       -4.08493250379948       -0.81772061516780
C           -6.70163172176397       -3.88660739880237       -1.77550439542918
C           -6.51134881210279       -2.96123609852335       -2.79067191139929
C           -5.32704721354154       -2.25600446455642       -2.85093119926433
C           -4.34460161451332       -2.45033314780260       -1.89216017746213
C           -4.53487973080610       -3.34403122540148       -0.84490502495945
C           -2.38375568102518       -1.45741343604619        0.20510430934857
C           -1.20883648500742       -0.70451881604282        0.16115250720892
C           -1.22074937397173        0.75113762886837        0.14741789269614
C           -2.40850286219868        1.48465935126639        0.15830785712727
C           -2.40767873177736        2.86694011663225        0.07273857398235
N           -3.63087889194674        3.56472051865571        0.03686087318998
C           -4.56665637275325        3.31114967257883       -0.97150856004612
C           -4.33023350813898        2.41038075483153       -2.00317553187274
C           -5.28537685641803        2.18022683328011       -2.98138023150575
C           -6.48806314376892        2.85584867809302       -2.95639374075197
C           -6.72470919039803        3.78754719812779       -1.95687473098345
C           -5.77490303237481        4.02157317761263       -0.97977936254311
O           -6.07077221894321        4.98575014022968       -0.04916743912679
C           -5.14917648237330        5.21290191048032        0.94208330411130
C           -5.47517748083350        6.16161791113603        1.89325392786023
C           -4.61217640753122        6.42197706022994        2.94730472021186
C           -3.43490832190627        5.70977231183501        3.05251974357760
C           -3.10267397216981        4.75851844986840        2.10001553494955
C           -3.93738266507063        4.51341841398016        1.01667940142884
C           -1.19598519309369        3.56122124407862        0.00473789675257
C           -0.01567208587128        2.86040535826662        0.02453228454942
C           -0.00661479510633        1.46314993082538        0.08721998633824
C            1.25376051144716        0.75725460483406        0.07506870946192
N            2.37625916977001        1.45252939978442        0.06115484065115
C            3.53200213131342        0.77457664036219        0.04177369196183
C            4.75874868445830        1.46642402031667        0.03810977835231
C            5.95016012735356        0.78912129758159        0.00492574597096
C            7.21234860336036        1.56073395647811        0.02544754091672
C            7.49435623627222        2.31966544100483        1.15832991293005
C            8.66442363133894        3.04720373310227        1.25278792448730
C            9.56397968114248        3.03261257949444        0.20042566307469
C            9.27358034676555        2.30782456979044       -0.93990021856301
C            8.10161581896939        1.56976632084323       -1.04992045482049
C            7.81247790479614        0.82773329337728       -2.31923684837416
H            7.22884390893531       -2.87031980774256       -2.99484234835130
H            6.08165980265131       -3.56449490836066       -1.85783909581648
H            5.94936931949932       -1.86393422486063       -2.29920460717241
H            9.05569733748822       -3.70515676753859       -1.61929287366421
H           10.63981075226320       -3.20422563983451        0.19082907077584
H           10.05073256869655       -1.51994994391327        1.90730976544079
H            7.88775207413846       -0.36389808544477        1.78542981456940
H            4.76446003892164       -2.40690760274803        0.02556445741077
H            0.98773924824891       -3.28661728604026       -0.00429826821375
H           -1.12705563356992       -4.59323378215107        0.00021034614257
H           -2.07342685216888       -4.11776315953517        2.29840930888234
H           -2.57134468307516       -5.79242706657273        4.00744109212001
H           -4.64722800064230       -7.13696261941446        3.86920155903944
H           -6.23659663531573       -6.72327598049856        2.00308271951667
H           -7.60392278986990       -4.47345231990856       -1.71121271675472
H           -7.28161159404670       -2.80932639380499       -3.53001057252362
H           -5.15210735074705       -1.54867436817278       -3.64677669871319
H           -3.41623217965715       -1.90687861622792       -1.96969390616601
H           -3.34495152510779       -0.97566339972680        0.28715629470939
H           -3.36321324197700        0.98806521001027        0.22685457037608
H           -3.38704998981663        1.88963496083675       -2.05297775078539
H           -5.07411450063547        1.46914844573374       -3.76503584879374
H           -7.23704810295306        2.67619865121758       -3.71122975253713
H           -7.64275350798911        4.35187404458218       -1.91985206134333
H           -6.41400435949990        6.68241493974849        1.79313185324786
H           -4.87253671889194        7.16722439800134        3.68212866773961
H           -2.76318440400457        5.88355013483689        3.87904770916986
H           -2.18807314846048        4.19674530132841        2.20653854796946
H           -1.20094025983630        4.63800010433668       -0.07332590880604
H            0.93500716789782        3.36694418788509       -0.02774768562100
H            4.73769877520792        2.54592216415509        0.05108557926498
H            6.78710773746649        2.31999446932560        1.97627480063669
H            8.87357499299111        3.62298471020109        2.14219084006857
H           10.48413219751316        3.59446689240474        0.26409286288654
H            9.96616133921831        2.31482814098643       -1.76974095924599
H            8.30418707700069       -0.14478118591767       -2.30577808136812
H            8.19021600478708        1.38342089129129       -3.17526377099796
H            6.74414127945768        0.66996449914381       -2.44676909348513
