  102
       -163.51233628
 C          6.6266454919       -2.6389570354       -2.1291675928
 C          7.5582084579       -2.3124465244       -0.9985569907
 C          8.7862099231       -2.9605622824       -0.9347183174
 C          9.6921154436       -2.6939157690        0.0743703590
 C          9.3770568418       -1.7627593056        1.0489664423
 C          8.1634388319       -1.1060377033        0.9988505199
 C          7.2463632829       -1.3663321165       -0.0164757606
 C          5.9620478975       -0.6384516909       -0.0143872885
 C          4.7779634468       -1.3311107362        0.0054897141
 C          3.5429137832       -0.6562991003        0.0412415803
 N          2.3982554316       -1.3535757307        0.0627813724
 C          1.2648805498       -0.6769877414        0.0933442845
 C          0.0164836128       -1.4035840183        0.1241521888
 C          0.0307060907       -2.8017247187        0.0892639808
 C         -1.1374206599       -3.5228894688        0.0990274281
 C         -2.3598037218       -2.8481098374        0.1699292378
 N         -3.5710644507       -3.5675522144        0.1681726833
 C         -3.8460160816       -4.4993210233        1.1730973341
 C         -2.9940904632       -4.7007666345        2.2519932070
 C         -3.2951157589       -5.6359339929        3.2304864799
 C         -4.4578714478       -6.3753145579        3.1557855340
 C         -5.3379345280       -6.1586969991        2.1059100929
 C         -5.0431108819       -5.2261915664        1.1289361925
 O         -5.9800005444       -5.0425468063        0.1429450826
 C         -5.7148545899       -4.0951590829       -0.8138418864
 C         -6.6792888656       -3.9057557545       -1.7862279156
 C         -6.4735592535       -2.9930955092       -2.8099019557
 C         -5.2869908046       -2.2911528606       -2.8633047268
 C         -4.3171127039       -2.4768432281       -1.8901372484
 C         -4.5226247404       -3.3583962408       -0.8355481403
 C         -2.3836338377       -1.4645222459        0.2248770518
 C         -1.2090491977       -0.7111604516        0.1813892144
 C         -1.2219109368        0.7444370198        0.1601839396
 C         -2.4100265011        1.4775944526        0.1645092886
 C         -2.4092782432        2.8593632985        0.0706081754
 N         -3.6316255363        3.5579192916        0.0270876059
 C         -4.5645905436        3.3024258204       -0.9834616185
 C         -4.3335097865        2.3861903805       -2.0026736402
 C         -5.2866494202        2.1540586456       -2.9823596926
 C         -6.4819803348        2.8430021660       -2.9716078537
 C         -6.7126012487        3.7902201424       -1.9854037074
 C         -5.7646502863        4.0263574332       -1.0070189645
 O         -6.0537785023        5.0067996706       -0.0912711026
 C         -5.1365664351        5.2337563052        0.9039900950
 C         -5.4571509843        6.1971082748        1.8422363718
 C         -4.5986540900        6.4577115630        2.8998719733
 C         -3.4319310055        5.7309494344        3.0221949208
 C         -3.1049453852        4.7654301443        2.0823705731
 C         -3.9342135229        4.5201733528        0.9948579132
 C         -1.1974798128        3.5536136490        0.0022471150
 C         -0.0170774300        2.8534711197        0.0296025371
 C         -0.0079262694        1.4565430242        0.0995886182
 C          1.2527178791        0.7512650028        0.0930499271
 N          2.3747307584        1.4473802024        0.0806662207
 C          3.5308288281        0.7702682895        0.0604773309
 C          4.7570368290        1.4629580172        0.0607836294
 C          5.9489376015        0.7869832109        0.0192552679
 C          7.2100547964        1.5600851640        0.0500693544
 C          7.4903870459        2.3013651088        1.1950265168
 C          8.6588190436        3.0299543173        1.3011469832
 C          9.5583873882        3.0338917654        0.2487481167
 C          9.2698195682        2.3263627835       -0.9028561029
 C          8.0994167441        1.5876154251       -1.0248534454
 C          7.8116543234        0.8647289046       -2.3053253574
 H          7.1923383357       -2.8320142478       -3.0389192931
 H          6.0564201906       -3.5389881813       -1.8985815201
 H          5.9226877359       -1.8326645168       -2.3161492748
 H          9.0330530773       -3.6868010181       -1.6967447731
 H         10.6404356630       -3.2100858454        0.0995725004
 H         10.0745521099       -1.5471132031        1.8443650583
 H          7.9105782944       -0.3892947486        1.7656157245
 H          4.7657059982       -2.4099323440        0.0165026286
 H          0.9893162646       -3.2930747952        0.0372588034
 H         -1.1247596690       -4.6010719457        0.0446080875
 H         -2.0906063208       -4.1172917280        2.3342846939
 H         -2.6106120250       -5.7756828552        4.0529719072
 H         -4.6938486031       -7.1082671921        3.9109346448
 H         -6.2662479848       -6.7018169548        2.0289165317
 H         -7.5840709593       -4.4892074017       -1.7263472645
 H         -7.2338828131       -2.8482344016       -3.5608719220
 H         -5.1003237389       -1.5934624630       -3.6649779300
 H         -3.3866513607       -1.9361157228       -1.9617172290
 H         -3.3456335420       -0.9830511386        0.2989105284
 H         -3.3646074790        0.9810572818        0.2349517664
 H         -3.3959723271        1.8545186094       -2.0418581077
 H         -5.0799923202        1.4301748546       -3.7554219529
 H         -7.2297104554        2.6614650251       -3.7272363410
 H         -7.6242432550        4.3654669675       -1.9601051084
 H         -6.3881072827        6.7292551346        1.7291564473
 H         -4.8544704291        7.2145543516        3.6243678854
 H         -2.7645938414        5.9044334885        3.8523156128
 H         -2.1986471796        4.1928502078        2.2018390792
 H         -1.2025983809        4.6299387658       -0.0818039683
 H          0.9336510940        3.3598659360       -0.0228567178
 H          4.7352349468        2.5423010861        0.0832871224
 H          6.7826947469        2.2875267276        2.0124593651
 H          8.8663328521        3.5924095376        2.1993875602
 H         10.4771319983        3.5969947358        0.3213611200
 H          9.9624964698        2.3479258097       -1.7323661693
 H          8.3087785862       -0.1050329654       -2.3092295278
 H          8.1838006199        1.4366303546       -3.1531120642
 H          6.7437411263        0.7027816410       -2.4328867721
