102
 energy: -163.512394489048 gnorm: 0.000066032512 xtb: 6.7.1 (edcfbbe)
C            7.50632172534075       -0.86644804919136       -1.91916227358074
C            7.72441003724135       -1.63410398477377       -0.65089718149309
C            8.88363713469968       -2.38410329974712       -0.49561718361996
C            9.10965899208277       -3.13342158527924        0.64339875877201
C            8.15707567012051       -3.16094784042544        1.64775917851283
C            6.99913014453313       -2.42144017072690        1.50817506769336
C            6.78139587072803       -1.63797112254224        0.37772700324862
C            5.52771383720147       -0.85557540197165        0.30868974963656
C            4.33127745311671       -1.52395213744805        0.27612800280892
C            3.11062242918263       -0.82282750846585        0.23275571651731
N            1.95056354130882       -1.49226213017382        0.19441173079659
C            0.83344191737367       -0.78887638580343        0.16340282716920
C           -0.43117302774545       -1.48614187043042        0.12259381462232
C           -0.44591228567641       -2.88434088793410        0.08867020829213
C           -1.62878364750436       -3.57886149872919        0.03593022909368
C           -2.83728504512835       -2.87614562360438        0.03192982071413
N           -4.06137812903238       -3.57173321153352       -0.03040844311656
C           -4.41710649338204       -4.46988713921898        0.97937200442203
C           -3.63950513627415       -4.65383834433079        2.11588936829537
C           -4.02125460898473       -5.55302458420936        3.09993067846212
C           -5.19151058887645       -6.27297319315767        2.97187391530171
C           -5.99730960939152       -6.07430596298199        1.86048909126319
C           -5.62185579548364       -5.17792680864062        0.87741773983073
O           -6.48720372104049       -5.01040827073836       -0.17471649646039
C           -6.14528403576168       -4.09195442547181       -1.13570152837028
C           -7.04031788981456       -3.91419308191530       -2.17421711384677
C           -6.75375326443399       -3.02977432824731       -3.20341038422490
C           -5.55728555226377       -2.34276592371353       -3.19352478788734
C           -4.65654794919537       -2.51678225909867       -2.15385832333919
C           -4.94318566771263       -3.37212685552937       -1.09686441419368
C           -2.83391385011789       -1.49231892916644        0.07977280897304
C           -1.64191384418715       -0.76580583560317        0.11176045724490
C           -1.62021785843413        0.68993655107192        0.11759469790951
C           -2.79012809187017        1.45172494543674        0.09126274737312
C           -2.75258650187524        2.83536759120678        0.05446169373977
N           -3.95559397398116        3.56727511824296       -0.00262314471916
C           -4.84323779946095        3.40066888237182       -1.06992000340866
C           -4.58069582434784        2.54659743572296       -2.13418348423558
C           -5.48649945060843        2.40580546702667       -3.17447849699957
C           -6.66378452258593        3.12525591729048       -3.17766682705478
C           -6.92541399507660        4.00871042348776       -2.14102810049337
C           -6.02517875698791        4.15343860013911       -1.10187911912598
O           -6.34114488539288        5.07306617838795       -0.13315441544008
C           -5.47104327490923        5.20789936820869        0.91976206933002
C           -5.82134058598299        6.10597305551482        1.91053788217263
C           -5.00988971995126        6.27321326876937        3.02298736961054
C           -3.85973440878720        5.52044662579758        3.14420688395609
C           -3.50323936306091        4.61935965221301        2.15244883312454
C           -4.28613000492877        4.46622339487654        1.01499427106132
C           -1.52382829560129        3.50190198650127        0.06434243689167
C           -0.36210436836246        2.77214134359105        0.11182003477502
C           -0.38864857492191        1.37393285288803        0.13438436471738
C            0.85482753858534        0.63907726086936        0.16936206317973
N            1.99247630741640        1.30831645364680        0.20505091140524
C            3.13231642150515        0.60375868287723        0.23706786957912
C            4.37147701670694        1.27061739433524        0.28272266360049
C            5.55075356693104        0.57031432409715        0.31290481760080
C            6.83747308395426        1.28756879605730        0.40895842409048
C            7.68805949591440        0.98861754087424        1.47058227076381
C            8.90045029720906        1.63314960688913        1.61627138434969
C            9.28167586111122        2.59065009225119        0.69218521904728
C            8.44189740440489        2.89577232087284       -0.36222586113592
C            7.21570358127494        2.26083318884190       -0.52178953737874
C            6.35782447577778        2.63048508480466       -1.69652510977660
H            8.00795510659813        0.09951694786054       -1.86437222133482
H            7.91922611837210       -1.41187592413854       -2.76551164674514
H            6.44743727988128       -0.69342538174258       -2.09598921757665
H            9.61777693041723       -2.38092446753368       -1.28894957851255
H           10.02105326184270       -3.70425882789118        0.74292899151713
H            8.31572280477793       -3.75608363154745        2.53484919856139
H            6.25091970974831       -2.43156893521822        2.28875021816674
H            4.30187532827218       -2.60332121712914        0.27283627052820
H            0.50294831289620       -3.39689269449832        0.09107587554728
H           -1.63850514185627       -4.65746222730210       -0.01016023421459
H           -2.73114974140863       -4.08501654519526        2.23809974836232
H           -3.39401237597045       -5.67974460585290        3.96888594571763
H           -5.49052858609795       -6.97730085783692        3.73192642664966
H           -6.92860967051623       -6.60404536731891        1.73923559072038
H           -7.95548954156030       -4.48423008793435       -2.16106287841569
H           -7.46002630838942       -2.89486474402152       -4.00717589146301
H           -5.30875594783580       -1.66639133717306       -3.99678018625506
H           -3.71633052655287       -1.98857952554939       -2.17393407810979
H           -3.78780350154530       -0.98953898611690        0.09136940937437
H           -3.75846661950115        0.97729881985257        0.09858239375444
H           -3.65531632206410        1.99300773612133       -2.15931335380518
H           -5.25706364986075        1.72949927814410       -3.98344992439344
H           -7.37404224866897        3.01620623775360       -3.98184242578131
H           -7.82470317103952        4.60333941071342       -2.12237296514899
H           -6.73787859238344        6.66195186086115        1.79438158755581
H           -5.28916554427686        6.97906279442845        3.78911314543509
H           -3.22882498046428        5.62266405169664        4.01373852093987
H           -2.61079827242243        4.02482372933866        2.26940190221039
H           -1.50158894800055        4.58066520666167        0.02699910837956
H            0.60148869837611        3.25637400479505        0.11906340733361
H            4.36482533206448        2.34898541588699        0.31753664259570
H            7.38316006848988        0.25114737903334        2.19773771881588
H            9.54516819128397        1.38807029346105        2.44688866628715
H           10.22983341648381        3.09795673963743        0.79212764140658
H            8.74086245385414        3.64250094894415       -1.08473962006042
H            5.65941904014372        1.83760289963734       -1.95022396424634
H            6.97957262603284        2.84461088317033       -2.56405264199106
H            5.78255160631003        3.52938197171443       -1.47373043190648
