102
 energy: -163.577142376483 gnorm: 0.000037451433 xtb: 6.7.1 (edcfbbe)
C            7.79395194907032       -0.75970772566009       -2.37254628601923
C            8.07573086682979       -1.55008664816036       -1.13107488393167
C            9.23775423759616       -2.30844012014704       -1.04961192370270
C            9.52166498769097       -3.07600849537414        0.06443327804730
C            8.62537682936508       -3.11356061809893        1.11955244987158
C            7.46455590624631       -2.36752556629881        1.05315992581696
C            7.18956934424195       -1.56637594101926       -0.05260334742722
C            5.93129938280459       -0.78670133178763       -0.04617689820550
C            4.73804383324395       -1.46277114735736       -0.03969431857039
C            3.51159519315127       -0.77106076473065       -0.00821648104561
N            2.35457384719452       -1.44905500525640       -0.00710343264866
C            1.23117901891252       -0.75384238011371        0.03358117430397
C           -0.02931462782549       -1.46012012171834        0.03908208787647
C           -0.03475130720706       -2.85783239351688       -0.02440708224306
C           -1.21293677555649       -3.56227376068144       -0.02476743485966
C           -2.42568868014813       -2.87089764177893        0.05304255240428
N           -3.64430907305436       -3.58248022251773        0.05344149418560
C           -3.92049730452146       -4.50629582253388        1.06552830420562
C           -3.08880933434075       -4.67000909672656        2.16710092987517
C           -3.39116323153483       -5.59438798628156        3.15563543654935
C           -4.53471172845976       -6.36256396825470        3.06764317445413
C           -5.39378919087890       -6.18679797789779        1.99239468114574
C           -5.09724604021809       -5.26452617390065        1.00586461096133
O           -6.01396746609720       -5.12361930595535       -0.00979733715913
C           -5.74161843351569       -4.18955600857084       -0.98243389725044
C           -6.67849702789912       -4.05040481312717       -1.98983618080075
C           -6.46407938358181       -3.15525965080091       -3.02776937171139
C           -5.29805164549195       -2.41737188103143       -3.05614596044421
C           -4.35699486933034       -2.55150712417599       -2.04641701051437
C           -4.56982609992538       -3.42023461614321       -0.98234786288238
C           -2.43184892490103       -1.48776288770231        0.12357377894107
C           -1.24512475308117       -0.75014386079035        0.10569797020125
C           -1.23326980029528        0.70635978010153        0.14074379301152
C           -2.40837493936917        1.46149208859824        0.18170757909942
C           -2.37973387953575        2.84614970627210        0.17589603009610
N           -3.58746301240099        3.57594737202958        0.18616628802818
C           -4.49218175149073        3.47749716908215       -0.87596322072571
C           -4.27245322012613        2.65116155863384       -1.97193429380072
C           -5.19253143376742        2.58023487967878       -3.00711918771153
C           -6.34378277632432        3.34066223612516       -2.97268576238902
C           -6.56403413013821        4.19458923784857       -1.90179094002777
C           -5.64818909142414        4.27031374318319       -0.86855669231603
O           -5.92477507886443        5.16641050082257        0.13798230366032
C           -5.02603219676474        5.24893666258051        1.17584328410018
C           -5.32368842026093        6.13847209262310        2.19165782712571
C           -4.48316735012725        6.25398246365293        3.28952302183770
C           -3.35720335144718        5.45933691022742        3.36941409779449
C           -3.05350425200257        4.56811455157297        2.35131790721379
C           -3.86588841227529        4.46504857964271        1.22823959569296
C           -1.15529089881915        3.52063528868262        0.14920399348164
C            0.01150695601448        2.79783890473462        0.12717402416129
C           -0.00585927144316        1.39881915580027        0.11752080876646
C            1.24311895686834        0.67334218784984        0.07543590900964
N            2.37771046229329        1.35093187037077        0.07306508151201
C            3.52382808990773        0.65508364763346        0.03079530054953
C            4.75954207073429        1.33005669074882        0.03267464708904
C            5.94475146254859        0.63938784585278       -0.01042500692454
C            7.22757935298299        1.36941350003685        0.04499725856815
C            8.11912429495069        1.06487242497992        1.07128245419864
C            9.32641701160018        1.72561166045178        1.18744193714197
C            9.66095974929724        2.70526856535120        0.26780538820380
C            8.78042043834824        3.01540795027476       -0.75168596291449
C            7.55825054564095        2.36469084635219       -0.88113748514829
C            6.65464333447476        2.74379164578944       -2.01805327603978
H            8.17538897905181       -1.28200834108994       -3.24758891963522
H            6.72652181105964       -0.59467787538812       -2.49832895825934
H            8.28693113330895        0.21037661698269       -2.31708568173756
H            9.92785954726898       -2.29754787518338       -1.88153543083946
H           10.43390605194723       -3.65320558976689        0.10544844994437
H            8.82880340117140       -3.72180091829162        1.98881548347022
H            6.75903112198363       -2.38723029939601        1.87277536533573
H            4.71487029724865       -2.54225107023320       -0.06727881997655
H            0.91659181820917       -3.36256623876523       -0.08447697614476
H           -1.21451441538832       -4.63988491506087       -0.08895136079002
H           -2.19902717733195       -4.06687683032534        2.25644727476843
H           -2.72285930602833       -5.70393624369409        3.99592309436945
H           -4.77237566730168       -7.08743088707978        3.83014133236165
H           -6.30599785671028       -6.75549671605264        1.90195777214712
H           -7.56789774816038       -4.65937104624134       -1.94614228553086
H           -7.20199778441161       -3.05184876555196       -3.80758086023208
H           -5.10490308405713       -1.73297866256000       -3.86764144334312
H           -3.44271185120999       -1.98160257706029       -2.09475551521809
H           -3.38697412193851       -0.99321479259219        0.19596416006914
H           -3.37203376251317        0.97961805814929        0.21718376013639
H           -3.36887468262930        2.06490023475578       -2.02526300138750
H           -4.99420352896298        1.92745275499373       -3.84304174664984
H           -7.06526797136649        3.28655178909963       -3.77258824533595
H           -7.44192018566154        4.81952506733027       -1.85129720090763
H           -6.22228570309452        6.72914312082873        2.10592234544791
H           -4.72139738893462        6.95339627812342        4.07527862663860
H           -2.70455133746016        5.52169383981630        4.22669492291497
H           -2.17803399874383        3.94343952125211        2.43363938606278
H           -1.13922208503836        4.59997026454595        0.13845824799557
H            0.97129513323395        3.28933412484341        0.10236553849004
H            4.74682781755857        2.40745455299916        0.09162010526849
H            7.84962675972996        0.31039682264962        1.79522379484437
H           10.00240679252279        1.47599651043630        1.99189216684590
H           10.60426721010188        3.22597503927720        0.34507940656790
H            9.04311997941957        3.77924104827960       -1.47032989131252
H            7.24178544848518        2.96793262698766       -2.90675833765968
H            6.08738667616692        3.63941253287152       -1.76321500254374
H            5.94850365732279        1.95171332652355       -2.25159117385310
