  102
       -163.46594432
 C          7.9534199177       -0.7354952690       -1.9645307431
 C          8.1538405881       -1.5555071490       -0.7268501829
 C          9.3036018315       -2.3227210077       -0.5908197017
 C          9.5122887484       -3.1172871585        0.5210253816
 C          8.5505206857       -3.1718810998        1.5154761006
 C          7.4012710571       -2.4154098422        1.3936176322
 C          7.2002553676       -1.5871115601        0.2925465785
 C          5.9568476023       -0.7902069596        0.2381897927
 C          4.7443972823       -1.4635816505        0.1844379181
 C          3.5286733956       -0.7866880309        0.1383241545
 N          2.3563061706       -1.4209256124        0.0814270209
 C          1.2121816082       -0.7532720638        0.0413861151
 C         -0.0358829090       -1.4432228915       -0.0271358047
 C         -0.0417824646       -2.8486037050       -0.0272681029
 C         -1.2133855671       -3.5531464800       -0.0637258811
 C         -2.4315943897       -2.8575049365       -0.1234230932
 N         -3.6515991014       -3.5753361196       -0.1440023181
 C         -4.5584507046       -3.4610280335        0.9064087795
 C         -4.3172890386       -2.6581778571        2.0168736163
 C         -5.2463348535       -2.5658921213        3.0398697578
 C         -6.4277690587       -3.2801484479        2.9802215296
 C         -6.6727883414       -4.1065596921        1.8947421055
 C         -5.7490231820       -4.2035418972        0.8696089359
 O         -6.0480211211       -5.0599145903       -0.1575783924
 C         -5.1471732861       -5.1571630476       -1.1859204848
 C         -5.4677536229       -6.0105427922       -2.2260747330
 C         -4.6150563838       -6.1383728221       -3.3116131193
 C         -3.4509686719       -5.3948431516       -3.3568359406
 C         -3.1236433003       -4.5390679432       -2.3180844714
 C         -3.9529239326       -4.4208183263       -1.2075205882
 C         -2.4462470558       -1.4798524824       -0.1459282868
 C         -1.2619540342       -0.7333685377       -0.0839374752
 C         -1.2475772366        0.7056707090       -0.0570529415
 C         -2.4167384123        1.4772087626       -0.0982605800
 C         -2.3756533238        2.8524017707       -0.0226865490
 N         -3.5808955889        3.5946555142       -0.0267797112
 C         -3.8533523568        4.4880113094       -1.0587347286
 C         -3.0105554923        4.6318892617       -2.1558817813
 C         -3.3089580745        5.5348297897       -3.1631007844
 C         -4.4573122139        6.3009766636       -3.0993099575
 C         -5.3237234023        6.1485434788       -2.0278364493
 C         -5.0322823241        5.2479459207       -1.0193416910
 O         -5.9457513113        5.1290184783       -0.0048282918
 C         -5.6793133696        4.2205193507        0.9863596596
 C         -6.6201281210        4.0959997221        1.9925642587
 C         -6.4072990201        3.2172109277        3.0432041699
 C         -5.2402588128        2.4788603597        3.0880263361
 C         -4.2943016700        2.5985137412        2.0834485079
 C         -4.5040070773        3.4534535348        1.0061170860
 C         -1.1447762492        3.5211077410        0.0729433172
 C          0.0127525537        2.7926699534        0.0877395064
 C         -0.0085196075        1.3888083957        0.0314842381
 C          1.2268453492        0.6726214004        0.0722718517
 N          2.3827167220        1.3157354513        0.1373760026
 C          3.5442614420        0.6563841783        0.1659951284
 C          4.7705653986        1.3093001679        0.2352677874
 C          5.9736488485        0.6139548405        0.2629469010
 C          7.2454561775        1.3500686036        0.3809149147
 C          8.1090180711        1.0264892963        1.4250964826
 C          9.3132575690        1.6825812776        1.5864312444
 C          9.6739873827        2.6809200877        0.6979247660
 C          8.8226331054        3.0106765084       -0.3401101623
 C          7.6070238485        2.3610662955       -0.5164488726
 C          6.7408606896        2.7488149041       -1.6795356278
 H          8.4092739907       -1.2260893507       -2.8222727733
 H          6.8951368707       -0.5858785159       -2.1627111690
 H          8.4196263614        0.2415866730       -1.8450972437
 H         10.0455302119       -2.2974992426       -1.3767489133
 H         10.4171527612       -3.7008695104        0.6065236706
 H          8.6959591212       -3.8009368228        2.3814255516
 H          6.6466023074       -2.4471975455        2.1673403811
 H          4.7284938133       -2.5427996049        0.1588904691
 H          0.9111424269       -3.3525660628        0.0199063577
 H         -1.2173124257       -4.6323936265       -0.0398678037
 H         -3.3916900376       -2.1090641691        2.0837716536
 H         -5.0353627263       -1.9314840623        3.8867921046
 H         -7.1541585334       -3.2075430035        3.7738061684
 H         -7.5756562711       -4.6916809485        1.8246373083
 H         -6.3920716956       -6.5625195807       -2.1676087115
 H         -4.8700241402       -6.8082467029       -4.1172428281
 H         -2.7878147598       -5.4724120283       -4.2044196565
 H         -2.2197840931       -3.9530184247       -2.3692082938
 H         -3.4032724190       -0.9856160454       -0.2045656009
 H         -3.3824568546        1.0044304987       -0.1842292625
 H         -2.1187861282        4.0290309015       -2.2219175551
 H         -2.6353869430        5.6314429339       -4.0004403847
 H         -4.6898265708        7.0075918786       -3.8800342437
 H         -6.2366400151        6.7177248944       -1.9563562664
 H         -7.5107379416        4.7009761473        1.9359034078
 H         -7.1475722719        3.1226367949        3.8215070155
 H         -5.0536803763        1.8033935532        3.9084935290
 H         -3.3800501467        2.0295581347        2.1394854456
 H         -1.1281848427        4.5984468777        0.1395142516
 H          0.9750407391        3.2754212634        0.1599785777
 H          4.7662809066        2.3862784828        0.2920545425
 H          7.8214487724        0.2562682458        2.1240379975
 H          9.9681643572        1.4159687549        2.4026754088
 H         10.6145950306        3.1994139188        0.8116591394
 H          9.1067116729        3.7866106568       -1.0376674160
 H          7.3576445363        3.0030250342       -2.5399227903
 H          6.1444829798        3.6268815657       -1.4306837721
 H          6.0628010452        1.9459405362       -1.9539156351
