  120
       -189.80148719
 N         12.8354987511       -6.5308013942       -0.2364897191
 C         11.8610935474       -5.9260757385       -0.2113262514
 C         10.6643342815       -5.1777268598       -0.1830638191
 C         10.5658974110       -4.0422883472        0.6236503086
 C          9.3947955930       -3.3160950712        0.6456128276
 C          8.2960869625       -3.7011638125       -0.1261327599
 C          7.0515673963       -2.9270396197       -0.0983939693
 C          5.8060299902       -3.5781698967       -0.1167141876
 C          4.6497057136       -2.8494364318       -0.0897479340
 C          4.6778835907       -1.4444970203       -0.0538182437
 C          5.9214504366       -0.7684108019       -0.0381986132
 C          7.0847953864       -1.5440912071       -0.0576091083
 C          5.9411291715        0.6764131766       -0.0056868679
 C          7.1253568542        1.4200103687        0.0148341391
 C          7.1297787225        2.8032108567        0.0574788895
 C          8.3946753335        3.5436720986        0.0874929372
 C          8.5348706263        4.6767361016        0.8919956328
 C          9.7210774307        5.3771976171        0.9288462424
 C         10.8003258356        4.9579952327        0.1482385205
 C         12.0158750920        5.6754493036        0.1776988722
 N         13.0029190527        6.2594679787        0.2040045740
 C         10.6719115368        3.8286920017       -0.6627626205
 C          9.4824171428        3.1330231235       -0.6864385722
 C          5.9026070285        3.4881982074        0.0752638478
 C          4.7267713810        2.7913188839        0.0466954562
 C          4.7166378290        1.3862975158        0.0099912100
 C          3.4646512674        0.7018249344       -0.0076547527
 N          2.3187254949        1.3612173762        0.0023664520
 C          1.1405913275        0.7433980242       -0.0110916863
 C         -0.0707726307        1.4276620520       -0.0195254122
 C         -1.2856666934        0.7554781216       -0.0346491993
 C         -2.5535662449        1.4910269241       -0.1198153151
 C         -3.5115029129        1.1117971094       -1.0619192606
 C         -4.7499998694        1.7085115356       -1.0886393949
 C         -5.0718103562        2.7080196839       -0.1690331248
 N         -6.3707795348        3.2269829896       -0.1450317846
 C         -7.4371408014        2.3341134485       -0.3114134605
 C         -7.3789841079        1.0663258558        0.2690974274
 C         -8.4163996828        0.1727590675        0.0946891479
 C         -9.5230712859        0.5233029379       -0.6615859471
 C         -9.5879275170        1.7825491582       -1.2358767240
 C         -8.5564669321        2.6859455441       -1.0645157418
 C         -6.5956345219        4.5870749399        0.0641414861
 C         -7.7296550874        5.0232981674        0.7508941086
 C         -7.9435655589        6.3724660910        0.9524687640
 C         -7.0338626260        7.3065551495        0.4836878326
 C         -5.9045251613        6.8785588668       -0.1953961068
 C         -5.6843628869        5.5324204278       -0.4093953477
 C         -4.0946138356        3.1435035600        0.7251718461
 C         -2.8512696275        2.5439551865        0.7417586624
 C         -1.3030840951       -0.6512639593       -0.0075581007
 C         -2.5886956177       -1.3634612160        0.0797934229
 C         -2.9553035347       -2.3148624030       -0.8682558600
 C         -4.2054059344       -2.8978929063       -0.8332952214
 C         -5.1094957726       -2.5655955843        0.1743709772
 N         -6.3962111726       -3.1259726825        0.1771664455
 C         -7.1180213964       -3.1391514355       -1.0210517104
 C         -7.9530353432       -4.2087637633       -1.3426734468
 C         -8.6709343270       -4.1971910504       -2.5227351028
 C         -8.5649965236       -3.1291696261       -3.3991986285
 C         -7.7267885523       -2.0704156690       -3.0894839604
 C         -7.0060126215       -2.0708270973       -1.9119156058
 C         -6.9502343896       -3.5977290319        1.3662111415
 C         -8.3266412358       -3.5399450596        1.5938878909
 C         -8.8572753680       -4.0072957506        2.7800872781
 C         -8.0330386521       -4.5331225898        3.7613904824
 C         -6.6661050968       -4.5912565755        3.5428718703
 C         -6.1256257367       -4.1327299484        2.3581896544
 C         -4.7237097633       -1.6608725107        1.1623164096
 C         -3.4836685919       -1.0628716936        1.1061623884
 C         -0.1087366296       -1.3561140677       -0.0225123828
 C          1.1216636782       -0.7046365412       -0.0314284925
 N          2.2814896348       -1.3540940043       -0.0458593915
 C          3.4455654450       -0.7260831132       -0.0355195366
 C          8.4060560724       -4.8410264021       -0.9257555994
 C          9.5736523757       -5.5721667625       -0.9606440969
 H         11.4097724585       -3.7434530876        1.2283359851
 H          9.3173974329       -2.4509374627        1.2876187799
 H          5.7675514444       -4.6571982202       -0.1249612359
 H          3.6846904412       -3.3329027432       -0.0937537937
 H          8.0491921646       -1.0613705651       -0.0694198138
 H          8.0762655703        0.9111777804        0.0251752250
 H          7.7092110023        4.9944335279        1.5113300897
 H          9.8258943904        6.2487522029        1.5584496540
 H         11.5074055166        3.5103860824       -1.2691365125
 H          9.3825227313        2.2718410395       -1.3306611143
 H          5.8938068597        4.5678532158        0.0851540218
 H          3.7753296904        3.3009577605        0.0517715987
 H         -0.0458670122        2.5063571574       -0.0445547678
 H         -3.2738407332        0.3455395934       -1.7839459298
 H         -5.4877069538        1.4030680501       -1.8164438166
 H         -6.5154546541        0.7917639563        0.8573772851
 H         -8.3630873869       -0.7990696631        0.5609399481
 H        -10.3293602754       -0.1802456929       -0.8021980162
 H        -10.4460125795        2.0624182876       -1.8289257788
 H         -8.6044055082        3.6644102582       -1.5197602231
 H         -8.4334066329        4.2972084254        1.1305729411
 H         -8.8237502413        6.6965804488        1.4878672008
 H         -7.2039727718        8.3598365298        0.6459185510
 H         -5.1928782785        7.5995955379       -0.5695400753
 H         -4.8103797757        5.2021092943       -0.9513014449
 H         -4.3282534771        3.9318720436        1.4257478028
 H         -2.1145090531        2.8625213014        1.4647204019
 H         -2.2632251796       -2.5727461548       -1.6568655355
 H         -4.4970242871       -3.6110437535       -1.5906782665
 H         -8.0292991418       -5.0465371797       -0.6650420018
 H         -9.3141699240       -5.0312680180       -2.7620192311
 H         -9.1308570187       -3.1233989245       -4.3184649474
 H         -7.6411147946       -1.2322974908       -3.7651804874
 H         -6.3614254209       -1.2403365260       -1.6645411767
 H         -8.9778702643       -3.1250620160        0.8382971198
 H         -9.9237311846       -3.9525201497        2.9417149343
 H         -8.4521777676       -4.8942601891        4.6877563035
 H         -6.0148538101       -5.0045085408        4.2985464828
 H         -5.0607905164       -4.1915182000        2.1878165607
 H         -5.4112402822       -1.4203543849        1.9604313442
 H         -3.2010686552       -0.3449342176        1.8619361202
 H         -0.1140611468       -2.4352376772       -0.0001382354
 H          7.5718399863       -5.1401248298       -1.5428812205
 H          9.6551849307       -6.4488095951       -1.5865987350
