  56
        -94.82058151
 O          3.5038140686        3.1096522758        1.4655655224
 S          3.2082759242        2.2261395147        0.3703874399
 O          3.3612972527        2.7546883626       -0.9631749672
 C          4.1863621627        0.7460136872        0.4773636304
 C          5.5042727465        0.8503488294        0.8770004186
 C          6.3298003145       -0.2584243605        0.8537647102
 C          5.8124192503       -1.4656603135        0.4074075067
 C          4.4924376994       -1.5753413443        0.0194942340
 C          3.6368039751       -0.4638128414        0.0577164025
 N          2.3009371503       -0.6024495478       -0.2898097828
 C          1.9070173542       -1.8322990093       -0.9065914024
 C          1.9735816290       -1.9433216250       -2.2873481375
 C          1.5895680320       -3.1247402372       -2.8991041092
 C          1.1395285463       -4.1888067508       -2.1353111440
 C          1.0739732746       -4.0756379200       -0.7560759935
 C          1.4575289371       -2.8989979596       -0.1371718813
 C          1.2980850414        0.2907870154        0.0429246557
 C         -0.0424045836       -0.0907833197       -0.0576878234
 C         -1.0568043095        0.7761865967        0.3432732267
 N         -2.4156488983        0.3572075258        0.2184694114
 C         -3.0966123923        0.7992566080       -0.8841179344
 C         -2.4166896928        1.4378290748       -1.9378957337
 C         -3.0781024672        1.9166339651       -3.0361072092
 C         -4.4879311970        1.8105358616       -3.1290087446
 C         -5.1852421930        1.2150464820       -2.1151531390
 C         -4.5273255406        0.6765259533       -1.0026970437
 S         -5.5028706907        0.0705187094        0.2887089974
 C         -4.3447879649       -0.6903160087        1.3231486571
 C         -4.8380627053       -1.4402564172        2.4000176011
 C         -3.9992396879       -1.9488331997        3.3506812053
 C         -2.6125394973       -1.6692486873        3.2767951908
 C         -2.1120618403       -0.9044027158        2.2558117182
 C         -2.9349130714       -0.4059982304        1.2321346777
 C         -0.7699377651        2.0383712981        0.8598396514
 C          0.5475037209        2.4353235783        0.9234965568
 C          1.5649340599        1.5829239725        0.5101006257
 H          5.8544025950        1.8189293118        1.1972464325
 H          7.3597592769       -0.1831550633        1.1635787437
 H          6.4445724875       -2.3401137513        0.3657163341
 H          4.1171996276       -2.5295673555       -0.3155289969
 H          2.3253037297       -1.1046895533       -2.8687080414
 H          1.6402159095       -3.2126132517       -3.9735617363
 H          0.8387169365       -5.1079538973       -2.6147255041
 H          0.7227683240       -4.9044458193       -0.1599739003
 H          1.4116825658       -2.7990506177        0.9372648079
 H         -0.3175038657       -1.0587851677       -0.4451781521
 H         -1.3440987311        1.5369152921       -1.8783617988
 H         -2.5254417920        2.3851251228       -3.8341101582
 H         -5.0001508247        2.2000438211       -3.9935927275
 H         -6.2611047082        1.1310555687       -2.1541180706
 H         -5.9029329917       -1.6130309606        2.4469092153
 H         -4.3839016992       -2.5474942515        4.1602259698
 H         -1.9505996650       -2.0522976242        4.0365335617
 H         -1.0562183055       -0.6856911055        2.2265693324
 H         -1.5703272630        2.6882320279        1.1757497730
 H          0.8307435523        3.4109686044        1.2831922443
