  55
  -85.8339673241000       0.528028142392706      !
 O         -5.1045635234        0.2837067356        0.3558956886
 C         -3.8606449044        0.1833493229        0.1652629203
 C         -3.1933911996       -1.0998380225        0.1303918786
 C         -3.9831727910       -2.2628656694        0.2487858788
 C         -3.4068040089       -3.5075215757        0.2072098403
 C         -2.0319435200       -3.6393072925        0.0482894190
 C         -1.2466394541       -2.5017088447       -0.0617016433
 C         -1.8091791151       -1.2387972743       -0.0238815236
 C         -0.8686125601       -0.0468058098       -0.1001877204
 C         -1.6357395129        1.2631039644       -0.2253173634
 C         -0.9064814430        2.4151300552       -0.4558604753
 C         -1.5276073500        3.6524246250       -0.5335131640
 C         -2.9057636591        3.7360271289       -0.3688459752
 C         -3.6458201007        2.6041475795       -0.1385687791
 C         -3.0237893167        1.3393641813       -0.0640806587
 C          0.0223199301       -0.1998535539       -1.3005852296
 C         -0.5660618127       -0.3266320194       -2.5515824243
 C          0.2004623886       -0.4673648827       -3.6909723570
 C          1.5856931714       -0.4886945732       -3.5849381492
 C          2.1910772747       -0.3625068752       -2.3546598512
 C          1.4202901046       -0.2077560782       -1.1944406818
 N          2.0325908114       -0.0765735769        0.0354639874
 C          3.4555001338       -0.0293709051        0.0951428259
 C          4.1758859382       -1.1697949494        0.4259886099
 C          5.5569671032       -1.1121181174        0.4900030114
 C          6.2168004176        0.0763855265        0.2235846768
 C          5.4961245010        1.2114139948       -0.1094527471
 C          4.1148022982        1.1628792670       -0.1742012909
 C          1.3113448484        0.0251709330        1.2083419758
 C          1.9740467139        0.1442500684        2.4374261822
 C          1.2605167460        0.2354586350        3.6113299434
 C         -0.1285156640        0.2140769666        3.5912389266
 C         -0.7897198077        0.1123306195        2.3839847801
 C         -0.0904429178        0.0204167353        1.1878680664
 H         -5.0472794528       -2.1337262650        0.3706401067
 H         -4.0281193659       -4.3865999281        0.2988933234
 H         -1.5742100174       -4.6159461916        0.0144529826
 H         -0.1756976417       -2.5976770654       -0.1781832313
 H          0.1658505920        2.3465647710       -0.5754161591
 H         -0.9412590179        4.5398605946       -0.7154579836
 H         -3.3997065894        4.6954872533       -0.4209581252
 H         -4.7159138317        2.6415405165       -0.0072776174
 H         -1.6434565232       -0.3130225783       -2.6143572671
 H         -0.2729223738       -0.5629700209       -4.6554440704
 H          2.1952573492       -0.6055130452       -4.4678889251
 H          3.2673776947       -0.3863753374       -2.2810919998
 H          3.6492564458       -2.0896069077        0.6337913820
 H          6.1170623816       -1.9976090668        0.7493358052
 H          7.2938302035        0.1182804772        0.2762494757
 H          6.0083311637        2.1381253480       -0.3183238373
 H          3.5412722731        2.0412603862       -0.4310045047
 H          3.0523043197        0.1674052086        2.4633158090
 H          1.7880991423        0.3264693597        4.5485717522
 H         -0.6871976615        0.2846966401        4.5112923048
 H         -1.8679599251        0.1079222372        2.3519808747
  55
  -85.8333486637000       0.274372408409748      !
 O         -5.1441095536        0.1977570701       -0.1432186841
 C         -3.8837535145        0.1384145721       -0.1025739826
 C         -3.1807214480       -1.1193969820        0.0206251561
 C         -3.9463580947       -2.3022668320        0.0992945055
 C         -3.3353564630       -3.5253538021        0.2165601845
 C         -1.9484117127       -3.6162867159        0.2603068801
 C         -1.1877266585       -2.4594764993        0.1835629877
 C         -1.7854344088       -1.2176731473        0.0647744905
 C         -0.8693993775       -0.0062092136       -0.0152615623
 C         -1.6596409104        1.2889503649       -0.1384139473
 C         -0.9413717648        2.4684356315       -0.2163309868
 C         -1.5833426712        3.6921996637       -0.3295510294
 C         -2.9730218535        3.7330765823       -0.3648752177
 C         -3.7024703594        2.5735288048       -0.2899304279
 C         -3.0581599177        1.3227835317       -0.1753319983
 C         -0.0080072900       -0.1454394474       -1.2409344141
 C         -0.6271485152       -0.2469063178       -2.4794109395
 C          0.1115980656       -0.3714955835       -3.6388003029
 C          1.4990448478       -0.3963830504       -3.5671095449
 C          2.1342103145       -0.2960708230       -2.3495973754
 C          1.3916751918       -0.1677985922       -1.1680391042
 N          2.0341666616       -0.0678638843        0.0492379715
 C          3.4595957577       -0.0639951582        0.0777351643
 C          4.1466771508        1.1363455166       -0.0471340032
 C          5.5302708542        1.1391735967       -0.0192593199
 C          6.2248814500       -0.0496660433        0.1327851301
 C          5.5368308317       -1.2456253059        0.2571313041
 C          4.1532080507       -1.2574276462        0.2299281256
 C          1.3425712379        0.0354858068        1.2390235440
 C          2.0362433502        0.1179066673        2.4538586481
 C          1.3518493615        0.2180701277        3.6444537663
 C         -0.0373807071        0.2403853917        3.6553025727
 C         -0.7280988811        0.1633963846        2.4625765153
 C         -0.0589865109        0.0611200976        1.2505297848
 H         -5.0202430076       -2.2040572813        0.0642347628
 H         -3.9386858353       -4.4195721066        0.2766279405
 H         -1.4634507005       -4.5759166859        0.3534999439
 H         -0.1085193745       -2.5231306347        0.2166158000
 H          0.1389616521        2.4308398326       -0.1872496077
 H         -1.0051995263        4.6015434470       -0.3890546445
 H         -3.4845002753        4.6807001883       -0.4523286382
 H         -4.7811239660        2.5770849153       -0.3160827959
 H         -1.7054016841       -0.2267177230       -2.5170698055
 H         -0.3852828488       -0.4497777629       -4.5930091795
 H          2.0866461011       -0.4952639446       -4.4669803775
 H          3.2120642920       -0.3174894785       -2.3026181709
 H          3.5930659184        2.0562394279       -0.1651778253
 H          6.0646092711        2.0719415782       -0.1164251749
 H          7.3038651372       -0.0442388187        0.1540858514
 H          6.0766875519       -2.1727514897        0.3755298079
 H          3.6048882911       -2.1829892263        0.3262971021
 H          3.1152330621        0.1028231308        2.4541896380
 H          1.9023281863        0.2796101409        4.5707333300
 H         -0.5729776351        0.3184048182        4.5883624652
 H         -1.8070176815        0.1818197269        2.4531006712
  55
  -85.8325057945000       0.112456502099019      !
 O         -5.1207590836        0.3813467157       -0.0911035361
 C         -3.8669556070        0.2361440356       -0.0744202813
 C         -3.2516322438       -1.0694752003        0.0270472551
 C         -4.0949817147       -2.1978866822        0.1023886001
 C         -3.5672744042       -3.4609482838        0.1989430976
 C         -2.1895522151       -3.6460789146        0.2234131992
 C         -1.3530479500       -2.5428896245        0.1504308541
 C         -1.8656412210       -1.2616353317        0.0528968093
 C         -0.8697719065       -0.1173262445       -0.0166829861
 C         -1.5693325289        1.2320161382       -0.1386194923
 C         -0.7747993164        2.3605839884       -0.2266048451
 C         -1.3341742363        3.6244511867       -0.3351432478
 C         -2.7181670980        3.7586435470       -0.3554365747
 C         -3.5222336934        2.6511645684       -0.2689428528
 C         -2.9626643279        1.3594303055       -0.1586684132
 C         -0.0064908569       -0.2933360136       -1.2363118739
 C         -0.6202389988       -0.4606717932       -2.4700628480
 C          0.1237540534       -0.5893498288       -3.6258207987
 C          1.5106806820       -0.5451724447       -3.5561473463
 C          2.1408015497       -0.3775160145       -2.3433385659
 C          1.3931379012       -0.2516842308       -1.1650710147
 N          2.0301500152       -0.0935031578        0.0490296776
 C          3.4468622402        0.0646778799        0.0691273757
 C          3.9898627379        1.3385743311       -0.0329399309
 C          5.3639125647        1.5011377445       -0.0148002589
 C          6.1923011299        0.3977364545        0.1052655626
 C          5.6480352822       -0.8721648278        0.2068815874
 C          4.2749054239       -1.0437104331        0.1891751108
 C          1.3371865012       -0.0580121612        1.2420406877
 C          2.0291304610        0.0112224614        2.4583918750
 C          1.3432329580        0.0344949793        3.6521784901
 C         -0.0454452118       -0.0073577470        3.6641017374
 C         -0.7349228975       -0.0674493722        2.4695830713
 C         -0.0643448110       -0.0945911865        1.2544026473
 H         -5.1600461421       -2.0276628754        0.0818356897
 H         -4.2292322610       -4.3128955142        0.2550244395
 H         -1.7700636259       -4.6373628146        0.2996416695
 H         -0.2801336443       -2.6783013291        0.1701857036
 H          0.3005075349        2.2538161954       -0.2097323957
 H         -0.6970485030        4.4926790100       -0.4043305450
 H         -3.1654552100        4.7384463518       -0.4391116178
 H         -4.5984121373        2.7264516906       -0.2819993222
 H         -1.6983778681       -0.4859581886       -2.5079899105
 H         -0.3691271201       -0.7202966999       -4.5763332349
 H          2.1019120485       -0.6426907879       -4.4537417913
 H          3.2184474038       -0.3448532938       -2.2974883256
 H          3.3331352074        2.1910108911       -0.1262914351
 H          5.7856697040        2.4914706526       -0.0937497212
 H          7.2635990807        0.5275364529        0.1194120265
 H          6.2927261488       -1.7328063017        0.2999969938
 H          3.8379445477       -2.0283736927        0.2672027552
 H          3.1077292714        0.0435182230        2.4576243310
 H          1.8920238230        0.0855960957        4.5800900684
 H         -0.5820573272        0.0109181277        4.5996516367
 H         -1.8136528561       -0.0928601016        2.4617728936
  55
  -85.8310928754000       2.521459001486701E-002 !
 O         -4.9562498314        0.6847266349        0.5379585276
 C         -3.7571041843        0.3993029135        0.2678859034
 C         -3.3129736385       -0.9726401669        0.1333615908
 C         -4.2794233925       -1.9957688076        0.2155382645
 C         -3.9149759834       -3.3133729519        0.0905955571
 C         -2.5829481213       -3.6554708929       -0.1125113446
 C         -1.6253628814       -2.6555411765       -0.1894601641
 C         -1.9728878659       -1.3206641461       -0.0773605484
 C         -0.8579360998       -0.2944279008       -0.1216636824
 C         -1.4111133187        1.1273896407       -0.2280724150
 C         -0.5352564605        2.1603163461       -0.5082616566
 C         -0.9626006690        3.4794068954       -0.5263424642
 C         -2.2926961672        3.7719218209       -0.2450756485
 C         -3.1787337971        2.7611001016        0.0242259861
 C         -2.7581615734        1.4129828549        0.0278583051
 C          0.0381127924       -0.5456678917       -1.3023366618
 C         -0.5343476966       -0.8076903287       -2.5394138882
 C          0.2433448007       -0.9597293213       -3.6701569170
 C          1.6218237068       -0.8209578208       -3.5749988181
 C          2.2116678415       -0.5509505601       -2.3598718533
 C          1.4335482043       -0.4277085133       -1.2018797185
 N          2.0241213999       -0.1743887510        0.0225590346
 C          3.3789095878        0.2550385421        0.0809312524
 C          3.6394474167        1.5968245421        0.3341762861
 C          4.9463909040        2.0456473348        0.3875465823
 C          5.9932083751        1.1602325923        0.1892085208
 C          5.7326855707       -0.1783204965       -0.0539866141
 C          4.4274774331       -0.6367152428       -0.1060096631
 C          1.3013818912       -0.2210643771        1.1994707205
 C          1.9686600247       -0.1912849260        2.4304375536
 C          1.2616257532       -0.2592614018        3.6102386777
 C         -0.1235658548       -0.3625681398        3.5898282968
 C         -0.7891218806       -0.3977260692        2.3803477099
 C         -0.0959968892       -0.3316152503        1.1791254198
 H         -5.3053535948       -1.7041979757        0.3773098498
 H         -4.6694107291       -4.0841466198        0.1524657981
 H         -2.2907550253       -4.6900380070       -0.2061644137
 H         -0.5863875476       -2.9159270051       -0.3392921892
 H          0.5004088396        1.9432671527       -0.7220925363
 H         -0.2620016385        4.2688836638       -0.7519442022
 H         -2.6326608996        4.7973626041       -0.2428013516
 H         -4.2185733775        2.9559765542        0.2358040533
 H         -1.6087567034       -0.8872809977       -2.6015672457
 H         -0.2184728616       -1.1702821823       -4.6219027481
 H          2.2391774883       -0.9197016493       -4.4547172363
 H          3.2817878056       -0.4301813343       -2.3026272114
 H          2.8144662973        2.2767228153        0.4902135936
 H          5.1450958370        3.0886114197        0.5817988550
 H          7.0122812572        1.5130592844        0.2282825316
 H          6.5475288048       -0.8709375345       -0.2005405419
 H          4.2154037079       -1.6809154316       -0.2836955428
 H          3.0456201848       -0.1255922324        2.4512854290
 H          1.7904600813       -0.2372298981        4.5507930075
 H         -0.6781484392       -0.4159526839        4.5135760623
 H         -1.8646884179       -0.4704017937        2.3558641903
  55
  -85.8308580250000       1.966627645987317E-002 !
 O         -4.9295253775        0.7194270865        0.5887749654
 C         -3.7395265062        0.4193275031        0.2955946635
 C         -3.3153712727       -0.9575890457        0.1481584765
 C         -4.2945546399       -1.9677528350        0.2383954967
 C         -3.9510130875       -3.2891003666        0.0953260514
 C         -2.6275774320       -3.6475773259       -0.1334415012
 C         -1.6568303206       -2.6606798654       -0.2146810321
 C         -1.9832391580       -1.3220992526       -0.0848567071
 C         -0.8551979672       -0.3100476181       -0.1277365039
 C         -1.3923981854        1.1180893200       -0.2357448847
 C         -0.5097684094        2.1402419074       -0.5335690768
 C         -0.9231272203        3.4637662050       -0.5545376869
 C         -2.2465759721        3.7724030967       -0.2599183956
 C         -3.1396144258        2.7726531888        0.0270807225
 C         -2.7328547039        1.4204095563        0.0357952228
 C          0.0426411532       -0.5720929632       -1.3050691469
 C         -0.5243366919       -0.8427161416       -2.5428029140
 C          0.2587717718       -1.0046796444       -3.6685768874
 C          1.6372551097       -0.8679452148       -3.5689678589
 C          2.2219790931       -0.5884111084       -2.3535355078
 C          1.4377998692       -0.4535111604       -1.2011955669
 N          2.0245888447       -0.1928765578        0.0229991047
 C          3.3670087181        0.2760388473        0.0811849188
 C          3.5837126446        1.6328897603        0.2902805866
 C          4.8757230235        2.1231411873        0.3431571124
 C          5.9509187804        1.2633406562        0.1905505585
 C          5.7338159261       -0.0902257680       -0.0080508890
 C          4.4437214895       -0.5895839102       -0.0616080522
 C          1.3009887133       -0.2502354955        1.1984063594
 C          1.9691023989       -0.2322703492        2.4287861360
 C          1.2623026274       -0.3121667665        3.6079507243
 C         -0.1231628019       -0.4108320221        3.5859446501
 C         -0.7894878366       -0.4318453647        2.3764083790
 C         -0.0965682661       -0.3580224265        1.1755396915
 H         -5.3134104064       -1.6630927273        0.4194832934
 H         -4.7152937097       -4.0496311575        0.1625749068
 H         -2.3515244494       -4.6850679468       -0.2423686606
 H         -0.6240771553       -2.9349811489       -0.3813067515
 H          0.5200665632        1.9113764272       -0.7617195768
 H         -0.2169516469        4.2441713252       -0.7941612242
 H         -2.5760606534        4.8012378007       -0.2615959407
 H         -4.1747937445        2.9796937781        0.2495767427
 H         -1.5984824702       -0.9216656958       -2.6099578169
 H         -0.1991256109       -1.2224700665       -4.6206357946
 H          2.2579287191       -0.9769026814       -4.4451226848
 H          3.2922382342       -0.4709182258       -2.2894049543
 H          2.7370823903        2.2927388155        0.4125581973
 H          5.0400494569        3.1779888148        0.5020778232
 H          6.9583435732        1.6481481453        0.2297997608
 H          6.5712105802       -0.7623178294       -0.1188919520
 H          4.2652205601       -1.6448628139       -0.2079977508
 H          3.0461717921       -0.1665662239        2.4482564937
 H          1.7911056025       -0.3024768185        4.5486577373
 H         -0.6780138037       -0.4720696718        4.5090716779
 H         -1.8652627448       -0.5002833782        2.3527425408
  55
  -85.8307092153000       1.680095377503837E-002 !
 O         -5.0486962970        0.5912904990       -0.2977283540
 C         -3.8150413900        0.3500204842       -0.1847366999
 C         -3.3148975630       -0.9996964695       -0.0312838029
 C         -4.2500337557       -2.0547987833        0.0052328794
 C         -3.8342059053       -3.3532872809        0.1624892796
 C         -2.4808023096       -3.6456394328        0.2879805880
 C         -1.5542470912       -2.6152108085        0.2459502090
 C         -1.9524938288       -1.2992913570        0.0866317983
 C         -0.8635143742       -0.2459822628        0.0254237602
 C         -1.4458203740        1.1622328348       -0.0907365602
 C         -0.5664733610        2.2295201596       -0.1095831998
 C         -1.0213920052        3.5346524451       -0.2159080432
 C         -2.3880502873        3.7757323041       -0.3077097422
 C         -3.2753775381        2.7309790908       -0.2959716639
 C         -2.8222343438        1.3973523540       -0.1887346359
 C         -0.0188329760       -0.4688375116       -1.2019065071
 C         -0.6456532652       -0.7093024680       -2.4168180711
 C          0.0819513766       -0.8319547664       -3.5838035936
 C          1.4629044085       -0.6880322059       -3.5476404436
 C          2.1059933669       -0.4477862303       -2.3535843453
 C          1.3793222691       -0.3551062479       -1.1600445731
 N          2.0271457270       -0.1496495960        0.0434833670
 C          3.4026396846        0.2171039133        0.0494880755
 C          3.7389979681        1.5485099491        0.2609346668
 C          5.0683503914        1.9305474097        0.2615543774
 C          6.0614477689        0.9880700090        0.0524084383
 C          5.7253228050       -0.3402280459       -0.1517128512
 C          4.3975213026       -0.7311450481       -0.1520493529
 C          1.3554413705       -0.2093549245        1.2495148858
 C          2.0728059811       -0.2107721130        2.4524418310
 C          1.4125490907       -0.2813068789        3.6589964979
 C          0.0256101931       -0.3523260823        3.6953090662
 C         -0.6883825177       -0.3571694888        2.5133540525
 C         -0.0435951869       -0.2924636153        1.2859218036
 H         -5.2940474229       -1.8014792328       -0.0925466614
 H         -4.5654075697       -4.1481255812        0.1896221267
 H         -2.1492623155       -4.6646712047        0.4147164029
 H         -0.4990603098       -2.8348574509        0.3372237295
 H          0.4951193908        2.0473226832       -0.0410609113
 H         -0.3168291451        4.3521973197       -0.2276484548
 H         -2.7543504031        4.7886348551       -0.3909288319
 H         -4.3405085128        2.8868820685       -0.3687040333
 H         -1.7210999903       -0.7928172408       -2.4341976479
 H         -0.4209741352       -1.0247785343       -4.5184085074
 H          2.0399481512       -0.7625190320       -4.4565939927
 H          3.1781938240       -0.3310553101       -2.3385513766
 H          2.9572647536        2.2759594762        0.4245019143
 H          5.3258894835        2.9662246414        0.4225604576
 H          7.0978430464        1.2888114174        0.0502339538
 H          6.4985991041       -1.0765983459       -0.3093220539
 H          4.1251108062       -1.7651698435       -0.3048473974
 H          3.1508320996       -0.1648486475        2.4298758351
 H          1.9799196612       -0.2839507673        4.5770688728
 H         -0.4913612468       -0.4042599592        4.6406450700
 H         -1.7660597806       -0.4098575056        2.5264368193
  55
  -85.8304307708000       1.251323799578948E-002 !
 O         -4.9402228288        0.7397730284        0.5046177257
 C         -3.7433047597        0.4311988549        0.2505325762
 C         -3.3212951031       -0.9491716175        0.1346167080
 C         -4.3051833950       -1.9547747071        0.2265230933
 C         -3.9631314735       -3.2796214622        0.1169945498
 C         -2.6369926202       -3.6464477629       -0.0811147420
 C         -1.6622483195       -2.6639509651       -0.1662487604
 C         -1.9867029469       -1.3220712759       -0.0679925284
 C         -0.8527603708       -0.3171273792       -0.1141692039
 C         -1.3789699813        1.1152081495       -0.2231116119
 C         -0.4832382406        2.1328745884       -0.4968226819
 C         -0.8881199976        3.4587185458       -0.5286826813
 C         -2.2177917163        3.7746120408       -0.2721455271
 C         -3.1234673728        2.7797450645       -0.0089434053
 C         -2.7244480298        1.4251692043        0.0126301483
 C          0.0375568421       -0.5816860593       -1.2970889910
 C         -0.5391894599       -0.8521469499       -2.5302510996
 C          0.2341194405       -1.0024114125       -3.6643348130
 C          1.6116242468       -0.8500752860       -3.5775207948
 C          2.2059193755       -0.5734585791       -2.3659474047
 C          1.4332083458       -0.4565823678       -1.2040716386
 N          2.0281956948       -0.2046037942        0.0191391592
 C          3.3619796504        0.2851150940        0.0780555929
 C          3.5572002820        1.6298994665        0.3732119904
 C          4.8393666543        2.1444340634        0.4269400085
 C          5.9279307844        1.3213753808        0.1891544372
 C          5.7333799819       -0.0208446818       -0.0919847441
 C          4.4529506823       -0.5449766847       -0.1455616794
 C          1.3107170556       -0.2780416648        1.1985363021
 C          1.9871590026       -0.2875557819        2.4244516105
 C          1.2875467519       -0.3808998210        3.6069438651
 C         -0.0988744637       -0.4662634040        3.5929832154
 C         -0.7730797181       -0.4643887091        2.3876783733
 C         -0.0870727266       -0.3782251720        1.1837186689
 H         -5.3261072920       -1.6437457773        0.3832906172
 H         -4.7306892587       -4.0365657500        0.1873927368
 H         -2.3623287306       -4.6867775294       -0.1632568248
 H         -0.6275144653       -2.9435840460       -0.3104069898
 H          0.5511746065        1.8997121253       -0.6974371727
 H         -0.1708783812        4.2347724493       -0.7489504743
 H         -2.5418769521        4.8050518812       -0.2848760571
 H         -4.1635736991        2.9923332911        0.1837094620
 H         -1.6133462922       -0.9383336352       -2.5874956855
 H         -0.2309190149       -1.2205129159       -4.6128323260
 H          2.2246989745       -0.9452750278       -4.4605924365
 H          3.2752106001       -0.4435030917       -2.3143655597
 H          2.7006762309        2.2611828015        0.5603307189
 H          4.9856949284        3.1899233755        0.6517244422
 H          6.9278130362        1.7254298164        0.2283878372
 H          6.5812131162       -0.6656011329       -0.2670800062
 H          4.2945148725       -1.5937853002       -0.3499744827
 H          3.0649956931       -0.2335920173        2.4376196967
 H          1.8227070364       -0.3911800725        4.5440449832
 H         -0.6480478348       -0.5360216133        4.5189166256
 H         -1.8494774304       -0.5256996457        2.3690600202
  55
  -85.8303044798000       1.094788885295778E-002 !
 O         -4.9091105849        0.7482136441        0.6093574623
 C         -3.7245956761        0.4358931964        0.3069718446
 C         -3.3151757522       -0.9452842062        0.1582083878
 C         -4.3031404100       -1.9458191005        0.2592966321
 C         -3.9736107462       -3.2705215670        0.1143907176
 C         -2.6562348881       -3.6419479487       -0.1282021107
 C         -1.6766927892       -2.6646441388       -0.2195585166
 C         -1.9888671585       -1.3230380325       -0.0866373561
 C         -0.8509213328       -0.3221757064       -0.1315748170
 C         -1.3742221647        1.1110369917       -0.2403391735
 C         -0.4843710432        2.1241497412       -0.5476281102
 C         -0.8863807377        3.4511426099       -0.5736973824
 C         -2.2056529804        3.7728945749       -0.2749599979
 C         -3.1056770145        2.7823791077        0.0225242892
 C         -2.7105752830        1.4268297206        0.0365459250
 C          0.0440374890       -0.5899238601       -1.3098957400
 C         -0.5275893015       -0.8547364769       -2.5467754298
 C          0.2508613884       -1.0089732193       -3.6767720550
 C          1.6290540176       -0.8672719501       -3.5821697826
 C          2.2183441178       -0.5946775680       -2.3672716688
 C          1.4398000912       -0.4719227427       -1.2099107421
 N          2.0296261863       -0.2206238346        0.0157985053
 C          3.3567896115        0.2858402263        0.0815629164
 C          3.5305371625        1.6329479669        0.3797455942
 C          4.8045180991        2.1659326191        0.4430549682
 C          5.9064453888        1.3589599194        0.2116549239
 C          5.7332141358        0.0146651473       -0.0729054868
 C          4.4609610912       -0.5280834824       -0.1358554822
 C          1.3060221565       -0.2920215411        1.1916431725
 C          1.9780605666       -0.3062573407        2.4199429159
 C          1.2735832433       -0.3931003151        3.5999450150
 C         -0.1135022944       -0.4665030044        3.5804494672
 C         -0.7831909790       -0.4621926400        2.3726574629
 C         -0.0920675982       -0.3840316903        1.1708809346
 H         -5.3169024972       -1.6313548422        0.4517368332
 H         -4.7440473782       -4.0237807502        0.1923288677
 H         -2.3913612839       -4.6821651709       -0.2387486711
 H         -0.6482979956       -2.9489336323       -0.3959641782
 H          0.5425251407        1.8864348277       -0.7798912635
 H         -0.1742462672        4.2236868751       -0.8211561550
 H         -2.5265831138        4.8043797111       -0.2817923503
 H         -4.1381131159        2.9998372818        0.2477811809
 H         -1.6020688778       -0.9321348640       -2.6102822447
 H         -0.2106294253       -1.2212803986       -4.6283127636
 H          2.2462633415       -0.9660925170       -4.4619782843
 H          3.2880182985       -0.4708942798       -2.3094242720
 H          2.6632973278        2.2511038566        0.5613012525
 H          4.9339969942        3.2131436788        0.6700771296
 H          6.9000739463        1.7772667549        0.2586730885
 H          6.5915694045       -0.6174418977       -0.2426177377
 H          4.3196885343       -1.5789720078       -0.3420693476
 H          3.0562732925       -0.2610475983        2.4363818262
 H          1.8050888305       -0.4087716125        4.5390417342
 H         -0.6670282003       -0.5292521081        4.5042936190
 H         -1.8599141330       -0.5137020613        2.3513671060
