  45
        -72.47891600
 O          1.3755709170       -3.7639718072       -0.0636459805
 C          1.6046846288       -2.5707968195       -0.0598532444
 C          1.7373044845       -1.7730415354       -1.2964862615
 C          2.0420714708       -2.4319130533       -2.4859164398
 C          2.2455704032       -1.7176587560       -3.6485143678
 C          2.1442740923       -0.3354383424       -3.6243717451
 C          1.8236449619        0.3240859486       -2.4501079083
 C          1.6183611117       -0.3823514707       -1.2713874753
 C          1.1681903820        0.3090935974        0.0031657774
 C          1.6520166879        1.7508999040        0.0190440628
 C          3.0196717385        1.9819231368       -0.1051379424
 C          3.5213004032        3.2688420274       -0.0861693211
 C          2.6628948331        4.3465091107        0.0628271637
 C          1.3045586313        4.1244737223        0.1965233463
 C          0.8000549311        2.8339495813        0.1762734984
 C         -0.3603651571        0.2285172129        0.0315264811
 C         -1.0914401724        0.4829861835       -1.1254513965
 C         -2.4720484614        0.4254053748       -1.1266229373
 C         -3.1364581826        0.1090406173        0.0452252628
 Br        -5.0397129438        0.0261369481        0.0541524007
 C         -2.4350360560       -0.1419336282        1.2097570023
 C         -1.0527217289       -0.0794558734        1.1967722520
 C          1.7241101819       -0.4194602472        1.2113751745
 C          2.0146614597        0.2527284986        2.3921801809
 C          2.4571304215       -0.4367073588        3.5081246710
 C          2.5963782254       -1.8156631170        3.4722868966
 C          2.2960999575       -2.4974436912        2.3109305602
 C          1.8665247258       -1.8080635998        1.1787804216
 H          2.1185174628       -3.5088198272       -2.4662077869
 H          2.4841492217       -2.2294043279       -4.5684674513
 H          2.3100390813        0.2352922575       -4.5262434368
 H          1.7429749584        1.4017491603       -2.4519196848
 H          3.6899270024        1.1413640427       -0.2184468920
 H          4.5840755567        3.4319753640       -0.1866419700
 H          3.0529233286        5.3531449412        0.0775858662
 H          0.6286149264        4.9578686612        0.3188086762
 H         -0.2627047849        2.6775627030        0.2875977173
 H         -0.5826063896        0.7322004872       -2.0436441962
 H         -3.0259808927        0.6238946972       -2.0312213217
 H         -2.9595110765       -0.3835385469        2.1213428658
 H         -0.5198617890       -0.2718394518        2.1149176783
 H          1.8921921906        1.3247509481        2.4420660065
 H          2.6871957677        0.1069497837        4.4125159371
 H          2.9333060566       -2.3511851606        4.3468589903
 H          2.3887368316       -3.5714610377        2.2489617212
  45
        -72.47887156
 O          4.3886133536       -2.1503817153       -0.3604122678
 C          3.2384575155       -1.7700085269       -0.2648145328
 C          2.3782841715       -1.5211640992       -1.4404878583
 C          2.7215527143       -2.1106062305       -2.6557654922
 C          1.9257370387       -1.9338483878       -3.7687421141
 C          0.7837300031       -1.1536591592       -3.6720893857
 C          0.4453015813       -0.5522777807       -2.4722822416
 C          1.2283994294       -0.7355442168       -1.3389429630
 C          0.9105674917       -0.0239120429       -0.0391063220
 C          1.6888834319        1.2963438103        0.0228348962
 C          1.7434520956        2.0064961672        1.2182105679
 C          2.4343906201        3.2009498380        1.3022393628
 C          3.0875974854        3.7081434306        0.1920768345
 C          3.0365032963        3.0111445164       -1.0009017358
 C          2.3421915841        1.8158911056       -1.0868336082
 C         -0.5891963599        0.2026747342        0.0422740609
 C         -1.4170033503       -0.9142602161        0.1352689901
 C         -2.7900955543       -0.7803075184        0.1892488924
 C         -3.3442763812        0.4885303588        0.1436556657
 Br        -5.2397576018        0.6872975453        0.2186312688
 C         -2.5443818726        1.6114600743        0.0406971711
 C         -1.1684377437        1.4626925203       -0.0117436117
 C          1.3837965518       -0.8512403996        1.1420401183
 C          0.7368994508       -0.8025763431        2.3710694206
 C          1.2391341471       -1.4861733299        3.4649010053
 C          2.4098888539       -2.2203148817        3.3570661193
 C          3.0606160522       -2.2809149476        2.1423688689
 C          2.5516513950       -1.6083754701        1.0329319470
 H          3.6222035401       -2.7048712936       -2.6963336001
 H          2.1920501760       -2.3939027839       -4.7082370558
 H          0.1553056005       -1.0046449883       -4.5376759767
 H         -0.4350748127        0.0713999433       -2.4207267130
 H          1.2409476872        1.6264984201        2.0946024562
 H          2.4629447889        3.7353810802        2.2403260086
 H          3.6310785171        4.6386673521        0.2575163570
 H          3.5393928679        3.3956036490       -1.8758126306
 H          2.3152139452        1.2948625231       -2.0314607143
 H         -0.9773979216       -1.9006668262        0.1655380141
 H         -3.4246436018       -1.6498019932        0.2639607034
 H         -2.9880384271        2.5942573477       -0.0015098911
 H         -0.5489603151        2.3418941775       -0.1014368639
 H         -0.1770088868       -0.2354558073        2.4773037692
 H          0.7137165930       -1.4404099177        4.4074814757
 H          2.8055747499       -2.7425813325        4.2148414807
 H          3.9700114718       -2.8498262019        2.0186078936
  45
        -72.47878098
 O          4.3333867765       -2.2637386441       -0.3004084445
 C          3.2023748558       -1.8212610507       -0.2480383701
 C          2.4325967088       -1.4494337959       -1.4520089564
 C          2.8448988457       -1.9579188238       -2.6828705240
 C          2.1163590709       -1.7044605911       -3.8257949135
 C          0.9594394556       -0.9459700367       -3.7387708841
 C          0.5517818226       -0.4263644708       -2.5227804971
 C          1.2827212576       -0.6625789666       -1.3643996601
 C          0.9140594306       -0.0021359834       -0.0483670783
 C          1.6904553083        1.3199942263       -0.0292144618
 C          2.6045359462        1.6248738960        0.9699776067
 C          3.3042318702        2.8200663694        0.9441829928
 C          3.1020574739        3.7295925261       -0.0770303851
 C          2.1907139496        3.4352163603       -1.0767816169
 C          1.4951194267        2.2411249940       -1.0539757549
 C         -0.5875866162        0.2106465002        0.0368409147
 C         -1.4178564916       -0.8868319712       -0.1790051969
 C         -2.7905130862       -0.7714216218       -0.0836281661
 C         -3.3411760121        0.4574237528        0.2403532009
 Br        -5.2359184365        0.6313265806        0.3726712169
 C         -2.5375333753        1.5575140348        0.4754650142
 C         -1.1624397454        1.4276855628        0.3760143256
 C          1.3382456581       -0.8635876091        1.1238294589
 C          0.6791779332       -0.7834679410        2.3448370106
 C          1.1039858298       -1.5289520351        3.4305616026
 C          2.2113478088       -2.3564618274        3.3235073724
 C          2.8870297371       -2.4309098658        2.1232696113
 C          2.4568448657       -1.6932749210        1.0213928971
 H          3.7429609609       -2.5568998557       -2.7085187549
 H          2.4388142465       -2.0983445820       -4.7776096547
 H          0.3705947612       -0.7535491434       -4.6234852078
 H         -0.3569152416        0.1566690815       -2.4781534908
 H          2.7805755704        0.9352943027        1.7810477364
 H          4.0123548571        3.0358968072        1.7302213520
 H          3.6497162814        4.6597818152       -0.0958495144
 H          2.0207591419        4.1362381889       -1.8804845389
 H          0.7909911056        2.0275932763       -1.8432258732
 H         -0.9812008933       -1.8434756548       -0.4262554328
 H         -3.4267720873       -1.6254673519       -0.2562442221
 H         -2.9777964067        2.5070177653        0.7380708480
 H         -0.5394542312        2.2873606121        0.5710943028
 H         -0.1731956994       -0.1290379220        2.4519627862
 H          0.5703010464       -1.4570812619        4.3666380285
 H          2.5448603290       -2.9319369986        4.1736885280
 H          3.7593909686       -3.0565582474        2.0061958254
  45
        -72.47869634
 O          4.3158014603       -2.3024444723       -0.2926281186
 C          3.1908689947       -1.8436489242       -0.2443892166
 C          2.4343818883       -1.4551756243       -1.4510413718
 C          2.8522477789       -1.9603854227       -2.6815279600
 C          2.1377394628       -1.6911826063       -3.8295228927
 C          0.9907561685       -0.9168576260       -3.7483352050
 C          0.5784519844       -0.4000463392       -2.5329149752
 C          1.2930779914       -0.6552000979       -1.3682537699
 C          0.9152730704       -0.0015638258       -0.0512337823
 C          1.6890634366        1.3220864948       -0.0339074949
 C          2.6782086117        1.5876405931        0.9030921273
 C          3.3749361757        2.7845260704        0.8720935982
 C          3.0952015058        3.7343251355       -0.0927546722
 C          2.1108722056        3.4777714070       -1.0320824673
 C          1.4187970552        2.2817873384       -1.0048829429
 C         -0.5869252085        0.2078564126        0.0337732811
 C         -1.4214945750       -0.8711753965       -0.2464259287
 C         -2.7942931995       -0.7543263739       -0.1488370690
 C         -3.3404399790        0.4553262818        0.2461709117
 Br        -5.2348476535        0.6311637979        0.3807999365
 C         -2.5321117166        1.5349163364        0.5516994438
 C         -1.1578986060        1.4042651304        0.4476173000
 C          1.3346499316       -0.8628145939        1.1231612300
 C          0.6801561506       -0.7696030117        2.3454782771
 C          1.0980815227       -1.5157231016        3.4336485993
 C          2.1940994262       -2.3581707722        3.3279151138
 C          2.8663898330       -2.4452247547        2.1266215315
 C          2.4433773915       -1.7063987293        1.0227461742
 H          3.7436173454       -2.5696615618       -2.7026420928
 H          2.4636204068       -2.0840268488       -4.7806040584
 H          0.4129594587       -0.7106195689       -4.6372178836
 H         -0.3225561413        0.1948192230       -2.4942105111
 H          2.9160305173        0.8660299074        1.6692861127
 H          4.1415589215        2.9698437991        1.6096773222
 H          3.6394011418        4.6664548858       -0.1149614686
 H          1.8816221059        4.2097675561       -1.7924832630
 H          0.6573094367        2.0977139191       -1.7471365802
 H         -0.9899032981       -1.8145172461       -0.5477216862
 H         -3.4339021725       -1.5936442898       -0.3739360584
 H         -2.9683331448        2.4687938930        0.8712523556
 H         -0.5311790370        2.2466373651        0.6983669086
 H         -0.1631033957       -0.1037979480        2.4530602863
 H          0.5682127563       -1.4318943219        4.3708217152
 H          2.5228923771       -2.9336564070        4.1798732812
 H          3.7319022969       -3.0805306510        2.0106599904
  45
        -72.47869281
 O          1.6731447622       -3.7721778106       -0.3238278272
 C          1.7610203979       -2.5617310993       -0.2462612557
 C          1.8828430068       -1.6983866289       -1.4389355995
 C          2.2621308429       -2.2843620033       -2.6459732078
 C          2.3901534329       -1.5199512472       -3.7868338389
 C          2.1253736155       -0.1602795913       -3.7272014205
 C          1.7387066783        0.4264545167       -2.5351432119
 C          1.6246022352       -0.3273955978       -1.3732234228
 C          1.1450777392        0.3099946435       -0.0842410192
 C          1.6715546852        1.7368946225       -0.0462302790
 C          3.0294704692        1.9305904631        0.1881702262
 C          3.5708479110        3.2021284537        0.1893594828
 C          2.7645116032        4.3010550534       -0.0569050555
 C          1.4181850276        4.1154019025       -0.3140812888
 C          0.8744327138        2.8413637573       -0.3132966785
 C         -0.3816698920        0.2444679167       -0.0080764120
 C         -1.1377754345       -0.4448908537       -0.9477410154
 C         -2.5160594010       -0.5164276570       -0.8399121439
 C         -3.1475316866        0.1076768653        0.2191302849
 Br        -5.0447802430        0.0215334513        0.3704093742
 C         -2.4174113520        0.7980544210        1.1712105609
 C         -1.0426125035        0.8575914024        1.0533033927
 C          1.6239925027       -0.4698416256        1.1280274580
 C          1.7840274306        0.1491746719        2.3623823991
 C          2.1259666956       -0.5819321504        3.4859792028
 C          2.3034275865       -1.9543984332        3.4035947494
 C          2.1578847420       -2.5809410726        2.1842727176
 C          1.8265937620       -1.8485493973        1.0446568756
 H          2.4479100260       -3.3480491369       -2.6572380566
 H          2.6865506800       -1.9767837655       -4.7188745489
 H          2.2140342436        0.4480280966       -4.6151002608
 H          1.5226767807        1.4841146118       -2.5100033427
 H          3.6633633964        1.0748995378        0.3729995902
 H          4.6255248865        3.3350704181        0.3788844922
 H          3.1855820740        5.2952168224       -0.0561162029
 H          0.7837069757        4.9645145033       -0.5205198317
 H         -0.1759978072        2.7132095022       -0.5297351091
 H         -0.6627755113       -0.9361647279       -1.7824030620
 H         -3.0905951133       -1.0554147295       -1.5773363328
 H         -2.9171788644        1.2823786197        1.9959699130
 H         -0.4818267313        1.3964053502        1.8004258527
 H          1.6628018406        1.2190727123        2.4484603024
 H          2.2530980063       -0.0755459673        4.4314459913
 H          2.5601279721       -2.5245321734        4.2834428340
 H          2.3011728844       -3.6459005464        2.0774754320
  45
        -72.47851686
 O          4.1901452950       -2.5095622910       -0.2958746304
 C          3.1143829468       -1.9438451152       -0.2458512575
 C          2.4063254568       -1.4765674973       -1.4531213239
 C          2.8208040388       -1.9738975602       -2.6889406437
 C          2.1538879483       -1.6298899266       -3.8447886615
 C          1.0548824589       -0.7878451935       -3.7675364806
 C          0.6459865628       -0.2811231430       -2.5476328310
 C          1.3151859305       -0.6097584048       -1.3736494786
 C          0.9296133471        0.0336750084       -0.0542539518
 C          1.6957462157        1.3611180735       -0.0390371491
 C          2.7970377968        1.5588058580        0.7829871667
 C          3.4989602568        2.7521584241        0.7469441288
 C          3.1150050333        3.7657287358       -0.1114752496
 C          2.0224809298        3.5751847785       -0.9399491491
 C          1.3238545206        2.3829429632       -0.9072736704
 C         -0.5762909326        0.2198014616        0.0288309765
 C         -1.3971165914       -0.8469203138       -0.3266399082
 C         -2.7716925507       -0.7533500889       -0.2257077126
 C         -3.3337777364        0.4190436687        0.2500905487
 Br        -5.2304216998        0.5630611188        0.3886063476
 C         -2.5391886674        1.4836898688        0.6345513995
 C         -1.1633734413        1.3764897123        0.5267142731
 C          1.3435586359       -0.8184013221        1.1294051429
 C          0.7318770624       -0.6492574633        2.3663660326
 C          1.1283939868       -1.3913332964        3.4644318974
 C          2.1596089122       -2.3116839829        3.3538714931
 C          2.7916029642       -2.4737331262        2.1393685046
 C          2.3922279606       -1.7348547823        1.0257733508
 H          3.6721888065       -2.6379419736       -2.7059939247
 H          2.4782469901       -2.0164290926       -4.7989808915
 H          0.5127452300       -0.5216235378       -4.6628853897
 H         -0.2185081279        0.3651179519       -2.5122192155
 H          3.1197564871        0.7842998387        1.4614389630
 H          4.3521292235        2.8845349962        1.3955876353
 H          3.6630072063        4.6955105154       -0.1380699375
 H          1.7125261311        4.3563488636       -1.6185320809
 H          0.4762008128        2.2544178798       -1.5624817271
 H         -0.9547183714       -1.7627366027       -0.6903289892
 H         -3.4001385357       -1.5830183649       -0.5104636406
 H         -2.9873860785        2.3870802877        1.0186711240
 H         -0.5476648880        2.2066145173        0.8392308881
 H         -0.0629659095        0.0731168253        2.4768811737
 H          0.6314794376       -1.2461559195        4.4122011642
 H          2.4694981893       -2.8885472357        4.2119749085
 H          3.6090603676       -3.1688962812        2.0181792400
  45
        -72.47838607
 O          2.0638189994       -3.7475560242       -0.3633122438
 C          1.9661584028       -2.5373715035       -0.2773915345
 C          1.9629311954       -1.6643530225       -1.4684037008
 C          2.3426621585       -2.2231096230       -2.6895402216
 C          2.3380410318       -1.4670987669       -3.8417883507
 C          1.9378755372       -0.1408187885       -3.7798157146
 C          1.5566183293        0.4192448730       -2.5741643131
 C          1.5753509145       -0.3244610449       -1.3994958904
 C          1.1176281831        0.3041583861       -0.0973200724
 C          1.6957767817        1.7115462469       -0.0569376628
 C          3.0276979657        1.8733059177        0.3093124021
 C          3.6136882352        3.1255520871        0.3089555229
 C          2.8806224224        4.2366485974       -0.0717582009
 C          1.5631772773        4.0818315435       -0.4643957264
 C          0.9755600522        2.8279259748       -0.4632495130
 C         -0.4085660448        0.2681679913       -0.0108347976
 C         -1.1470623188       -0.6384992391       -0.7621496756
 C         -2.5229476761       -0.7152110708       -0.6382777277
 C         -3.1710487381        0.1221556554        0.2505022598
 Br        -5.0661392744        0.0304630596        0.4237780160
 C         -2.4585507203        1.0261813203        1.0186178864
 C         -1.0844328782        1.0884593389        0.8879996964
 C          1.5655740119       -0.4892096144        1.1174158820
 C          1.5812920802        0.1077882598        2.3737143265
 C          1.9035823605       -0.6182385111        3.5049400763
 C          2.2089932145       -1.9678981663        3.4085259745
 C          2.2061836333       -2.5712495713        2.1701668970
 C          1.8916411002       -1.8423731684        1.0218791611
 H          2.6312632727       -3.2636127108       -2.6995960066
 H          2.6339941996       -1.9041198970       -4.7833458587
 H          1.9193510500        0.4616476025       -4.6757661178
 H          1.2415931663        1.4512128254       -2.5485459766
 H          3.6092462308        1.0096290745        0.5984846147
 H          4.6471272692        3.2323101678        0.6033371391
 H          3.3356377105        5.2157045853       -0.0705230193
 H          0.9864856057        4.9393791757       -0.7785017352
 H         -0.0512722370        2.7250065191       -0.7840007984
 H         -0.6552778108       -1.3019888473       -1.4563745526
 H         -3.0832961780       -1.4240487436       -1.2279569250
 H         -2.9708288074        1.6733410939        1.7138128342
 H         -0.5411942695        1.7967320635        1.4932941900
 H          1.3571289225        1.1591847420        2.4708470407
 H          1.9140385690       -0.1282804164        4.4673014252
 H          2.4510525264       -2.5361093512        4.2937190762
 H          2.4498015848       -3.6165393226        2.0516020627
  45
        -72.47830864
 O          3.9845752089       -2.7832180272       -0.3071984046
 C          2.9962106807       -2.0751717634       -0.2489659624
 C          2.3580436583       -1.5129569257       -1.4540739616
 C          2.7653368058       -2.0040544583       -2.6959004808
 C          2.1686619688       -1.5659684106       -3.8575902252
 C          1.1440484071       -0.6339866814       -3.7824240730
 C          0.7416092279       -0.1363732846       -2.5574889040
 C          1.3428934743       -0.5588877524       -1.3760516302
 C          0.9484198202        0.0746773374       -0.0551768038
 C          1.7011984252        1.4088241369       -0.0405375804
 C          2.8956351809        1.5460487805        0.6545630700
 C          3.6000742383        2.7373327858        0.6205610135
 C          3.1273419923        3.8094971255       -0.1137446080
 C          1.9448944855        3.6780991354       -0.8204149454
 C          1.2418946133        2.4878494756       -0.7884254047
 C         -0.5618141420        0.2309925639        0.0257167020
 C         -1.3657692168       -0.8174821881       -0.4113190044
 C         -2.7424571279       -0.7507963481       -0.3120341183
 C         -3.3237422138        0.3748591560        0.2452929750
 Br        -5.2228390955        0.4818068992        0.3838645467
 C         -2.5466184449        1.4192295504        0.7122251064
 C         -1.1691427623        1.3392471932        0.6047869288
 C          1.3628023937       -0.7635765884        1.1391212292
 C          0.8199303987       -0.5010695055        2.3924207767
 C          1.2033307160       -1.2285749177        3.5039991623
 C          2.1511107679       -2.2346603658        3.3905032552
 C          2.7140483437       -2.4924550921        2.1596071412
 C          2.3305300808       -1.7644091694        1.0321257888
 H          3.5563667714       -2.7390606711       -2.7113848344
 H          2.4888443144       -1.9481727597       -4.8149031882
 H          0.6554482282       -0.2918529974       -4.6827784915
 H         -0.0640139380        0.5812320258       -2.5223937740
 H          3.2882967802        0.7218747312        1.2299576087
 H          4.5250382730        2.8225438734        1.1705059989
 H          3.6767788669        4.7384275447       -0.1397072653
 H          1.5664801509        4.5044765939       -1.4037847087
 H          0.3242199880        2.4087994471       -1.3511558193
 H         -0.9100675713       -1.6987202838       -0.8382991347
 H         -3.3566546741       -1.5667475772       -0.6599267714
 H         -3.0094346318        2.2855549628        1.1591647905
 H         -0.5685839819        2.1557250086        0.9776814841
 H          0.0885295400        0.2848604966        2.5049924144
 H          0.7622795596       -1.0057616427        4.4642834955
 H          2.4501878775       -2.8025552412        4.2583369187
 H          3.4676725064       -3.2556309491        2.0333247278
  45
        -72.47822763
 O          2.3524847728       -3.7246199013        0.0422937360
 C          2.1235808390       -2.5288570473        0.0266323466
 C          1.8925163314       -1.7904171798       -1.2293908395
 C          2.1540562665       -2.4531842373       -2.4304484980
 C          2.0077441235       -1.8084317189       -3.6387237692
 C          1.6033726766       -0.4814628293       -3.6534611613
 C          1.3358387242        0.1791155050       -2.4695503771
 C          1.4702827675       -0.4609606743       -1.2414957107
 C          1.0976024799        0.2754632947        0.0324187785
 C          1.7049996214        1.6724775796        0.0249969501
 C          3.0044585514        1.8305702776       -0.4448600968
 C          3.6187565111        3.0689379051       -0.4223867899
 C          2.9481708926        4.1696747521        0.0829976359
 C          1.6655727619        4.0171129240        0.5778914707
 C          1.0499691869        2.7769249511        0.5556355921
 C         -0.4302570891        0.2647453354        0.0343607294
 C         -1.1575750040        1.1875501392       -0.7115638542
 C         -2.5384702014        1.1457422099       -0.7494774103
 C         -3.2060097030        0.1595188607       -0.0450590891
 Br        -5.1099186269        0.1003562434       -0.0869583976
 C         -2.5067663520       -0.7838287719        0.6849698699
 C         -1.1250929846       -0.7269690990        0.7177792634
 C          1.6146015109       -0.4114390432        1.2823496179
 C          1.5714981414        0.2580107404        2.5007520999
 C          2.0146079990       -0.3438060446        3.6638809731
 C          2.5076110470       -1.6398743707        3.6380184948
 C          2.5384460654       -2.3235664962        2.4422610504
 C          2.0930049999       -1.7229926373        1.2632080451
 H          2.4785041950       -3.4817816493       -2.3767139983
 H          2.2113229757       -2.3267425213       -4.5634745935
 H          1.4961242960        0.0419514453       -4.5920309616
 H          1.0343537611        1.2148331820       -2.5021162877
 H          3.5389422397        0.9753634379       -0.8329576206
 H          4.6257602609        3.1729745122       -0.7981696257
 H          3.4252538406        5.1380485315        0.0980101507
 H          1.1377202336        4.8654443142        0.9882973852
 H          0.0508134627        2.6780373416        0.9555345348
 H         -0.6516771821        1.9614786149       -1.2670796769
 H         -3.0908518451        1.8735585812       -1.3238113708
 H         -3.0324494067       -1.5574956768        1.2229011214
 H         -0.5910886403       -1.4719259112        1.2873925674
 H          1.1877320118        1.2657275096        2.5430532321
 H          1.9726877018        0.2019361409        4.5949096594
 H          2.8557246927       -2.1098111415        4.5452533311
 H          2.9000345199       -3.3395399889        2.3836276825
  45
        -72.47804530
 O          3.6422600104       -3.1082746164       -0.3249174416
 C          2.8042837043       -2.2271547665       -0.2548652786
 C          2.2690826351       -1.5597740773       -1.4563418393
 C          2.6452605959       -2.0680526915       -2.7019855929
 C          2.1486772727       -1.5252089799       -3.8659575576
 C          1.2576388757       -0.4641108099       -3.7918872588
 C          0.8846497736        0.0473833659       -2.5640559641
 C          1.3844856979       -0.4840694613       -1.3787392203
 C          0.9848102022        0.1461091333       -0.0581773216
 C          1.7125507716        1.4912286793       -0.0350697924
 C          2.9723874451        1.5843857992        0.5447389492
 C          3.6731609504        2.7772846685        0.5277133915
 C          3.1310232880        3.8971622226       -0.0770250634
 C          1.8858677003        3.8096955651       -0.6737682364
 C          1.1856924665        2.6164839366       -0.6589683681
 C         -0.5314090596        0.2554818835        0.0192356232
 C         -1.3028471605       -0.7879061282       -0.4836201606
 C         -2.6812010482       -0.7694653927       -0.3866005073
 C         -3.2989339603        0.3026711626        0.2328034192
 Br        -5.2006134197        0.3458054614        0.3658269285
 C         -2.5549948360        1.3414215109        0.7620488413
 C         -1.1755780873        1.3096167932        0.6575296563
 C          1.4026032271       -0.6773084610        1.1461816811
 C          0.9661249313       -0.3015264021        2.4126425821
 C          1.3331267443       -1.0146907655        3.5381665797
 C          2.1563905121       -2.1252629179        3.4250885391
 C          2.6116967165       -2.4995146638        2.1803450138
 C          2.2454151346       -1.7844664858        1.0378231113
 H          3.3316164980       -2.9017206643       -2.7169118702
 H          2.4435734045       -1.9234195867       -4.8248778639
 H          0.8503756047       -0.0341637071       -4.6950654091
 H          0.1833247654        0.8665714255       -2.5272066794
 H          3.4161203544        0.7196351830        1.0149937410
 H          4.6483808869        2.8280703267        0.9886054466
 H          3.6760492955        4.8290275260       -0.0883988907
 H          1.4538534564        4.6736492708       -1.1569708484
 H          0.2169173393        2.5760976129       -1.1335695162
 H         -0.8213930932       -1.6293896748       -0.9594815016
 H         -3.2688088383       -1.5804842594       -0.7880610465
 H         -3.0457040359        2.1674671816        1.2536559869
 H         -0.6059369495        2.1255136251        1.0769652543
 H          0.3306526832        0.5633834654        2.5234668845
 H          0.9775602915       -0.7000674211        4.5080481126
 H          2.4430145829       -2.6836857977        4.3032355368
 H          3.2675879218       -3.3478242304        2.0518496738
  45
        -72.47793571
 O          2.9376337202       -3.5422436164       -0.2344979485
 C          2.4261332815       -2.4385951239       -0.1662656855
 C          1.9814331216       -1.7098903640       -1.3696995845
 C          2.2261449613       -2.3021815782       -2.6112686263
 C          1.8820674741       -1.6622460234       -3.7807129260
 C          1.2951879861       -0.4065167520       -3.7175070587
 C          1.0459684984        0.1842713473       -2.4940417089
 C          1.3736949999       -0.4561825677       -1.3026828110
 C          1.0447267586        0.2241053257        0.0134461856
 C          1.7235273839        1.5895520453        0.0657587023
 C          1.1666061369        2.6769294816        0.7280859865
 C          1.8482723695        3.8792849078        0.8062314348
 C          3.1008766343        4.0117466051        0.2346195457
 C          3.6727932387        2.9277576400       -0.4083794222
 C          2.9921254790        1.7267169930       -0.4870581647
 C         -0.4788594299        0.2729624278        0.0542785053
 C         -1.1788655652       -0.7992296780        0.5984824639
 C         -2.5609718288       -0.8254193572        0.5987019118
 C         -3.2565451232        0.2313672543        0.0392942791
 Br        -5.1623761572        0.2121956069        0.0390725947
 C         -2.5856258562        1.3010467133       -0.5247078409
 C         -1.2027509879        1.3131367005       -0.5191593472
 C          1.5608990755       -0.5291923747        1.2248622743
 C          1.3615635686        0.0125280677        2.4912231031
 C          1.8267263097       -0.6252789718        3.6249795451
 C          2.5058676410       -1.8306682568        3.5202329509
 C          2.6949953881       -2.3888671320        2.2758096659
 C          2.2245236113       -1.7523830191        1.1244583492
 H          2.6982717616       -3.2734545597       -2.6183288241
 H          2.0725534754       -2.1278071969       -4.7356215900
 H          1.0309151390        0.1147435466       -4.6255935971
 H          0.5985151590        1.1654543532       -2.4657469340
 H          0.1911973113        2.5986959175        1.1859858498
 H          1.3957474615        4.7145558449        1.3202694428
 H          3.6300788089        4.9507568230        0.2954715727
 H          4.6551166310        3.0142028400       -0.8483440285
 H          3.4538497653        0.8849771397       -0.9825681913
 H         -0.6420453232       -1.6310012241        1.0293359183
 H         -3.0910557848       -1.6612646995        1.0285453500
 H         -3.1360278410        2.1171919135       -0.9671256226
 H         -0.6951496730        2.1555057367       -0.9633600812
 H          0.8332655812        0.9475034011        2.5931804684
 H          1.6587005709       -0.1801539247        4.5944301499
 H          2.8746298370       -2.3277507462        4.4045936941
 H          3.2042780833       -3.3333226394        2.1535158824
