  45
  -72.1916201211000       0.174766906284035      !
 O          1.7066260599       -3.7709242391        0.0340758909
 C          1.7833678390       -2.5574625393        0.0573426859
 C          2.0179287904       -1.7551557469       -1.1608368920
 C          2.5139678545       -2.3990116927       -2.2937803848
 C          2.7499394053       -1.6928176644       -3.4547644453
 C          2.4770307423       -0.3339312199       -3.4910946169
 C          1.9750971663        0.3098623822       -2.3737927375
 C          1.7509091610       -0.3846051321       -1.1910746708
 C          1.1470274650        0.3140120849        0.0109846373
 C          1.6635653257        1.7449642176        0.0261824464
 C          2.9918523944        1.9607023838        0.3804527648
 C          3.5272003218        3.2347350807        0.3684905679
 C          2.7456245217        4.3134981345       -0.0108162710
 C          1.4310582470        4.1047188743       -0.3870192555
 C          0.8931619398        2.8282719045       -0.3731958796
 C         -0.3797355508        0.2408226240       -0.0575071507
 C         -1.0393812305       -0.5012967743       -1.0291074021
 C         -2.4214331273       -0.5777423877       -1.0514657329
 C         -3.1542253816        0.0947236898       -0.0919661473
 Br        -5.0569693939        0.0019520575       -0.1205455617
 C         -2.5216485238        0.8382956212        0.8894109598
 C         -1.1420567762        0.9022168972        0.9020326343
 C          1.5082535075       -0.3993208353        1.3024066091
 C          1.5462611375        0.2830346792        2.5129316387
 C          1.7796223544       -0.3871989588        3.7004664115
 C          1.9678625070       -1.7606885653        3.7064001443
 C          1.9428415741       -2.4496834141        2.5126059129
 C          1.7216276671       -1.7789023466        1.3101115413
 H          2.7027772713       -3.4604428749       -2.2322501516
 H          3.1364836250       -2.1943113094       -4.3290269077
 H          2.6497212200        0.2289666306       -4.3964052319
 H          1.7548507135        1.3657515581       -2.4241450441
 H          3.6071082662        1.1204047373        0.6695015049
 H          4.5581874158        3.3852011921        0.6519731585
 H          3.1620048448        5.3095863826       -0.0205227159
 H          0.8173318080        4.9373405770       -0.6972650251
 H         -0.1310028759        2.6812471045       -0.6832660739
 H         -0.4844228268       -1.0308594250       -1.7875401596
 H         -2.9203637104       -1.1579937550       -1.8122346909
 H         -3.1002796539        1.3602241472        1.6359644501
 H         -0.6577508655        1.4826851372        1.6711214004
 H          1.4144337277        1.3549753208        2.5316842618
 H          1.8131788723        0.1676943367        4.6264600268
 H          2.1395851845       -2.2832421404        4.6351247024
 H          2.0986226833       -3.5175804793        2.4751367666
  45
  -72.1914954771000       0.153171082683745      !
 O          1.3852152513       -3.7517292727        0.2635072980
 C          1.6097256389       -2.5582020250        0.2279851371
 C          1.8594670173       -1.8235564790       -1.0294678060
 C          2.2798226235       -2.5398816075       -2.1483593185
 C          2.5931544026       -1.8843106457       -3.3210719300
 C          2.4863390776       -0.5034694199       -3.3780374992
 C          2.0516642835        0.2126133723       -2.2757879148
 C          1.7349726972       -0.4343425793       -1.0876248025
 C          1.1615619766        0.3177454618        0.1001460870
 C          1.6377558312        1.7621305074        0.0884545062
 C          3.0103919820        1.9969355444        0.0853185885
 C          3.5044145156        3.2869324184        0.0863947984
 C          2.6327616268        4.3642228901        0.0960332012
 C          1.2684545131        4.1389499058        0.1090640152
 C          0.7717042053        2.8452653358        0.1066220282
 C         -0.3623273812        0.2270749342       -0.0152618849
 C         -0.9784947501        0.4166372876       -1.2490474546
 C         -2.3523324253        0.3485531713       -1.3806938180
 C         -3.1263524797        0.0873021225       -0.2638249867
 Br        -5.0212859691       -0.0095387499       -0.4346474521
 C         -2.5404396676       -0.0986109155        0.9744228733
 C         -1.1635448936       -0.0263452336        1.0919108511
 C          1.5996880035       -0.3439934514        1.3923359611
 C          1.7726465526        0.3897276614        2.5595107069
 C          2.1066952648       -0.2385146177        3.7470105112
 C          2.2524081527       -1.6164027093        3.7958514896
 C          2.0679088161       -2.3587852720        2.6475621293
 C          1.7482639123       -1.7313268050        1.4452033085
 H          2.3568469371       -3.6137685375       -2.0659291229
 H          2.9211263111       -2.4404685000       -4.1860805584
 H          2.7372243124        0.0217763390       -4.2878492870
 H          1.9686992624        1.2881361571       -2.3408761202
 H          3.6906949270        1.1568238074        0.0807579119
 H          4.5714888481        3.4528236931        0.0808522744
 H          3.0168592499        5.3732444310        0.0965698206
 H          0.5816388729        4.9723214005        0.1223661343
 H         -0.2964243616        2.6866650147        0.1226049590
 H         -0.3837247302        0.6225762875       -2.1253666641
 H         -2.8165047995        0.4964296571       -2.3436133051
 H         -3.1501570043       -0.2974067419        1.8422712236
 H         -0.7216748817       -0.1675938673        2.0659446784
 H          1.6430835030        1.4619348784        2.5420593530
 H          2.2465833635        0.3522898650        4.6402059531
 H          2.5044000848       -2.1040483316        4.7253042226
 H          2.1689564101       -3.4338281991        2.6502223318
  45
  -72.1911809920000       0.109811907855791      !
 O          4.3407430887       -2.2634984880        0.1659001800
 C          3.2099771308       -1.8219140724        0.1019583123
 C          2.5504355479       -1.4947501147       -1.1780134534
 C          3.0698395455       -2.0457119458       -2.3485820427
 C          2.4458412895       -1.8345845963       -3.5599196745
 C          1.2865024348       -1.0760135042       -3.6029012653
 C          0.7730550765       -0.5144559987       -2.4471191537
 C          1.3980887469       -0.7077965196       -1.2207960873
 C          0.9147429655       -0.0018536263        0.0330219697
 C          1.6876633687        1.3218171357        0.0739540754
 C          2.5097685348        1.6639769541        1.1388247577
 C          3.2101565130        2.8590268539        1.1327244654
 C          3.1002853413        3.7312787876        0.0659095943
 C          2.2809663354        3.3996019573       -0.9996483434
 C          1.5849298630        2.2055553226       -0.9961984135
 C         -0.5883324069        0.2105366656       -0.0229461102
 C         -1.3972414152       -0.8957256108       -0.2724387896
 C         -2.7728334378       -0.7800028143       -0.3033786560
 C         -3.3488766031        0.4583635839       -0.0734276303
 Br        -5.2477157011        0.6327120561       -0.1159928220
 C         -2.5681968258        1.5678618090        0.1927874234
 C         -1.1898299350        1.4375907127        0.2204011562
 C          1.2323989649       -0.8202156833        1.2681154036
 C          0.4676603173       -0.6982374270        2.4222146084
 C          0.7937217559       -1.4037740406        3.5671636021
 C          1.9054087310       -2.2321401721        3.5882642809
 C          2.6848584932       -2.3476766673        2.4561120614
 C          2.3548669520       -1.6505694474        1.2948869603
 H          3.9660511741       -2.6432612857       -2.2731421717
 H          2.8511024565       -2.2613071826       -4.4647646674
 H          0.7786757386       -0.9164121165       -4.5426473759
 H         -0.1354491994        0.0678065183       -2.5040435709
 H          2.6124698009        1.0040144352        1.9863190902
 H          3.8459446590        3.1041758475        1.9703118632
 H          3.6483590458        4.6614084965        0.0626875640
 H          2.1836832712        4.0712743341       -1.8396762307
 H          0.9534078640        1.9625982983       -1.8367102132
 H         -0.9412996718       -1.8595875820       -0.4458030166
 H         -3.3920961391       -1.6410274610       -0.5012831609
 H         -3.0291013397        2.5251256372        0.3813707933
 H         -0.5857762636        2.3050096474        0.4392890101
 H         -0.3902192205       -0.0422815720        2.4299609604
 H          0.1791474231       -1.2998814197        4.4490528492
 H          2.1616020753       -2.7763376513        4.4846036950
 H          3.5635575559       -2.9751785939        2.4392130585
  45
  -72.1911710471000       0.108662346060931      !
 O          4.4045764494       -2.1472256165        0.0556250365
 C          3.2502441064       -1.7675981994        0.0466246315
 C          2.4900530524       -1.5493680050       -1.2017802079
 C          2.9329234139       -2.1670579674       -2.3698983523
 C          2.2317274485       -2.0192172332       -3.5487750298
 C          1.0852074248       -1.2398450313       -3.5657414058
 C          0.6484327401       -0.6105799295       -2.4129257880
 C          1.3352749054       -0.7644689318       -1.2146550500
 C          0.9106971258       -0.0225212852        0.0368481197
 C          1.6804987477        1.3008284297        0.1308637035
 C          1.6356823604        2.0397298191        1.3090968442
 C          2.3166495638        3.2376235668        1.4209480471
 C          3.0591019723        3.7195730470        0.3565822697
 C          3.1071755258        2.9938879015       -0.8192944138
 C          2.4230044216        1.7951401505       -0.9333009314
 C         -0.5907865551        0.2021289124       -0.0114736097
 C         -1.4228288709       -0.9143508797        0.0398548617
 C         -2.7957582654       -0.7826444634       -0.0230550223
 C         -3.3449767279        0.4833053816       -0.1450171483
 Br        -5.2402788251        0.6789786944       -0.2317391657
 C         -2.5399311470        1.6054666568       -0.2087235653
 C         -1.1642786010        1.4589941305       -0.1436855901
 C          1.2851359743       -0.8199220876        1.2727576535
 C          0.5388388724       -0.7432955075        2.4425978471
 C          0.9493216127       -1.3990380763        3.5904295724
 C          2.1253897071       -2.1325722660        3.5975143523
 C          2.8743257778       -2.2207760417        2.4425587165
 C          2.4584321058       -1.5764811438        1.2788915850
 H          3.8341744645       -2.7598252190       -2.3215023197
 H          2.5750389823       -2.5011054926       -4.4516284932
 H          0.5303969873       -1.1133480050       -4.4836447124
 H         -0.2335377225        0.0119080264       -2.4494130306
 H          1.0626688333        1.6796880630        2.1499280649
 H          2.2672715119        3.7945862506        2.3449572598
 H          3.5947989521        4.6527897076        0.4441273535
 H          3.6804480145        3.3584264200       -1.6587264492
 H          2.4744867957        1.2514225368       -1.8640209044
 H         -0.9866834833       -1.8986146470        0.1302384020
 H         -3.4338287827       -1.6517034986        0.0200277964
 H         -2.9791250473        2.5858239932       -0.3112480304
 H         -0.5399941986        2.3373578142       -0.2031745989
 H         -0.3810370056       -0.1761155850        2.4591867862
 H          0.3477666971       -1.3319066655        4.4849914184
 H          2.4491104066       -2.6329948343        4.4974534093
 H          3.7911538550       -2.7901802221        2.4081787871
  45
  -72.1910283911000       9.343700710419736E-002 !
 O          4.3226498511       -2.3011982929        0.1794677963
 C          3.1983068052       -1.8436736648        0.1100608185
 C          2.5527933621       -1.5022822220       -1.1728881081
 C          3.0782828799       -2.0519695263       -2.3414987023
 C          2.4692435059       -1.8274771129       -3.5578698845
 C          1.3202799601       -1.0534692501       -3.6082275243
 C          0.8016839796       -0.4927363684       -2.4545500018
 C          1.4093667329       -0.7025682112       -1.2221045618
 C          0.9161933631       -0.0012356435        0.0306648660
 C          1.6865333459        1.3240276039        0.0674825020
 C          2.5884084576        1.6267279409        1.0783678750
 C          3.2861896416        2.8233257854        1.0649488341
 C          3.0944636379        3.7358264571        0.0442208596
 C          2.1976008563        3.4420452254       -0.9688884299
 C          1.5047931552        2.2462179678       -0.9588694759
 C         -0.5874131643        0.2075359434       -0.0264713012
 C         -1.3946282972       -0.8832231581       -0.3394818141
 C         -2.7705553529       -0.7661732471       -0.3691027341
 C         -3.3486767092        0.4560202941       -0.0697938598
 Br        -5.2473849606        0.6321233713       -0.1112537899
 C         -2.5698565577        1.5482169695        0.2660670395
 C         -1.1919538499        1.4171360026        0.2898664438
 C          1.2283958573       -0.8171004062        1.2691025001
 C          0.4675832133       -0.6800065043        2.4238660495
 C          0.7861323004       -1.3840373680        3.5720552662
 C          1.8864619799       -2.2271595591        3.5959813937
 C          2.6631308704       -2.3572732924        2.4634996461
 C          2.3409091174       -1.6611290407        1.2994976922
 H          3.9674407587       -2.6594296953       -2.2602993552
 H          2.8782964332       -2.2546906718       -4.4607788777
 H          0.8242428618       -0.8819085418       -4.5521606315
 H         -0.0986556392        0.1009551826       -2.5185627218
 H          2.7563085120        0.9347517721        1.8891163054
 H          3.9841422154        3.0378713506        1.8605085429
 H          3.6393049429        4.6678081799        0.0358376789
 H          2.0377310394        4.1446364243       -1.7734942897
 H          0.8123728300        2.0327543784       -1.7586658676
 H         -0.9387263669       -1.8360795811       -0.5656721678
 H         -3.3882876244       -1.6148561614       -0.6188384125
 H         -3.0320068449        2.4922846923        0.5103695883
 H         -0.5893445003        2.2697954160        0.5638694778
 H         -0.3813175206       -0.0127173016        2.4309086200
 H          0.1748697077       -1.2666403696        4.4544710473
 H          2.1374519255       -2.7696945622        4.4947478022
 H          3.5349703086       -2.9943424728        2.4489621302
  45
  -72.1909555034000       8.650118387708031E-002 !
 O          4.1983584355       -2.5066443615        0.1824356723
 C          3.1227825683       -1.9426378800        0.1128933596
 C          2.5267266609       -1.5254760821       -1.1708076119
 C          3.0506715783       -2.0699111766       -2.3436039408
 C          2.4908842595       -1.7737707571       -3.5675491902
 C          1.3898585173       -0.9326490628       -3.6230190741
 C          0.8729138558       -0.3794402558       -2.4659295195
 C          1.4333484754       -0.6594981655       -1.2243392307
 C          0.9307371919        0.0343094113        0.0284537588
 C          1.6931156849        1.3636218196        0.0601360771
 C          2.7159106796        1.5968948682        0.9695983722
 C          3.4188877234        2.7900064987        0.9497867515
 C          3.1144625845        3.7677691494        0.0208433983
 C          2.1009848738        3.5414063670       -0.8945296073
 C          1.4015947185        2.3492817252       -0.8778160921
 C         -0.5764206904        0.2190303908       -0.0319377888
 C         -1.3624440453       -0.8633498026       -0.4174634825
 C         -2.7404693394       -0.7700130301       -0.4445983097
 C         -3.3425143037        0.4185360924       -0.0681362150
 Br        -5.2438416807        0.5621901446       -0.1069137192
 C         -2.5852357862        1.4999067096        0.3439563729
 C         -1.2053612531        1.3926820637        0.3648705752
 C          1.2357938406       -0.7691672555        1.2773730174
 C          0.5151637158       -0.5532105878        2.4465142304
 C          0.8106419806       -1.2502013114        3.6043343301
 C          1.8471130786       -2.1710856401        3.6236456643
 C          2.5859518985       -2.3790061693        2.4784032587
 C          2.2890256644       -1.6858315464        1.3049981621
 H          3.8997563271       -2.7315435165       -2.2575832683
 H          2.8997446144       -2.1966652827       -4.4725892762
 H          0.9308097718       -0.7035832595       -4.5734082159
 H          0.0091071660        0.2650873689       -2.5341562805
 H          2.9757090913        0.8507266637        1.7044735744
 H          4.2101679320        2.9504334803        1.6669325220
 H          3.6631477556        4.6974252298        0.0069880078
 H          1.8539138877        4.2942607076       -1.6286483784
 H          0.6164013579        2.1924609157       -1.6011498485
 H         -0.8895643983       -1.7914610611       -0.7032951444
 H         -3.3411410302       -1.6121565526       -0.7517913275
 H         -3.0657401069        2.4163901743        0.6500883505
 H         -0.6198779810        2.2363383162        0.6985235610
 H         -0.2860043879        0.1705626234        2.4562900900
 H          0.2303738886       -1.0692528568        4.4969785600
 H          2.0780454660       -2.7127186306        4.5283268149
 H          3.4106199178       -3.0759424211        2.4589668199
  45
  -72.1908176584000       7.476061675461722E-002 !
 O          3.9959384806       -2.7784675839        0.1735124981
 C          3.0063945261       -2.0723609190        0.1118593591
 C          2.4808221180       -1.5630794751       -1.1687787697
 C          2.9996830488       -2.1037614087       -2.3467617829
 C          2.5114673322       -1.7165413174       -3.5752443117
 C          1.4842846215       -0.7861280829       -3.6326876466
 C          0.9717982892       -0.2396188006       -2.4713401889
 C          1.4628031784       -0.6104435997       -1.2234385824
 C          0.9495002611        0.0759121907        0.0284241649
 C          1.6978278511        1.4123567655        0.0559801842
 C          2.8238834538        1.5828402217        0.8507184123
 C          3.5285074501        2.7743438967        0.8314279226
 C          3.1247442119        3.8133027229        0.0130412790
 C          2.0116833118        3.6482059387       -0.7923586144
 C          1.3086760914        2.4576576108       -0.7749824633
 C         -0.5618138965        0.2297325511       -0.0352440653
 C         -1.3225706177       -0.8390173875       -0.4996426617
 C         -2.7025745508       -0.7734794470       -0.5291047989
 C         -3.3322543037        0.3721339091       -0.0744845166
 Br        -5.2360722503        0.4775520499       -0.1141469428
 C         -2.6009441242        1.4379226035        0.4173857592
 C         -1.2194122204        1.3587642105        0.4393617295
 C          1.2532025193       -0.7104643265        1.2894187186
 C          0.5982775684       -0.3982111023        2.4759898122
 C          0.8786739263       -1.0774866826        3.6472408544
 C          1.8328384561       -2.0838213058        3.6626341299
 C          2.5057018733       -2.3903602531        2.4999859569
 C          2.2266386701       -1.7112052740        1.3128787307
 H          3.7888153465       -2.8357769821       -2.2594364055
 H          2.9176303612       -2.1369432050       -4.4826245268
 H          1.0798535261       -0.4835187499       -4.5873010511
 H          0.1663445243        0.4757698726       -2.5397581244
 H          3.1624092109        0.7847559719        1.4933588347
 H          4.3994533098        2.8858128951        1.4593505720
 H          3.6742744563        4.7424278274       -0.0014402011
 H          1.6880729274        4.4482145341       -1.4417275078
 H          0.4461555879        2.3518411372       -1.4152186692
 H         -0.8298363250       -1.7354899879       -0.8462063588
 H         -3.2824921278       -1.6054889478       -0.8972082173
 H         -3.1025841743        2.3202971508        0.7837817782
 H         -0.6553571073        2.1922861367        0.8310762290
 H         -0.1403292265        0.3889402080        2.4885745319
 H          0.3518722426       -0.8166715310        4.5532062629
 H          2.0514991636       -2.6140631193        4.5770290602
 H          3.2676903484       -3.1552622567        2.4748363211
  45
  -72.1907521102000       6.975077036085879E-002 !
 O          2.0976590238       -3.7463293020        0.0190836063
 C          1.9894526040       -2.5341155043        0.0362770281
 C          2.0988096141       -1.7195535439       -1.1905935928
 C          2.5954822553       -2.3338685179       -2.3410336589
 C          2.6999882641       -1.6343169003       -3.5238081720
 C          2.2927206500       -0.3093942374       -3.5650954534
 C          1.7960151312        0.3054693997       -2.4302606633
 C          1.7033711026       -0.3806136470       -1.2244404270
 C          1.1211167349        0.3068467789       -0.0043124161
 C          1.6895189503        1.7185152052        0.0228593990
 C          2.9796739890        1.9069570448        0.5069141385
 C          3.5601501956        3.1617587152        0.5018808995
 C          2.8645868954        4.2481133502       -0.0009999840
 C          1.5913628130        4.0654344381       -0.5102377555
 C          1.0091950351        2.8090021108       -0.5044951620
 C         -0.4062353291        0.2644985697       -0.0630161989
 C         -1.0670012186       -0.6824156100       -0.8367333531
 C         -2.4482450504       -0.7625943239       -0.8418648230
 C         -3.1807093321        0.1121246014       -0.0611531190
 Br        -5.0834677538        0.0157684581       -0.0662563520
 C         -2.5474309213        1.0570300005        0.7269012478
 C         -1.1672649772        1.1224546562        0.7258580291
 C          1.4519541692       -0.4239362734        1.2849410156
 C          1.3454284578        0.2330075740        2.5064222292
 C          1.5590722870       -0.4354088780        3.6973182594
 C          1.8753898931       -1.7859994894        3.6964093532
 C          1.9930533109       -2.4483353874        2.4943109816
 C          1.7887557488       -1.7778413050        1.2870567699
 H          2.8860639553       -3.3716237259       -2.2727343073
 H          3.0861086645       -2.1141470869       -4.4102506772
 H          2.3590860573        0.2490505684       -4.4869257336
 H          1.4776545373        1.3352666256       -2.4852080310
 H          3.5326669644        1.0622677359        0.8922132214
 H          4.5602435095        3.2897337051        0.8885200416
 H          3.3151599855        5.2292185943       -0.0037305812
 H          1.0456157077        4.9028337941       -0.9195618644
 H          0.0182051855        2.6836361023       -0.9169037381
 H         -0.5092324087       -1.3751698331       -1.4474740375
 H         -2.9476814918       -1.5028901838       -1.4474126133
 H         -3.1256546449        1.7333785938        1.3374342382
 H         -0.6863595608        1.8628203088        1.3453162950
 H          1.1105868256        1.2862859973        2.5303475083
 H          1.4758197516        0.1004199039        4.6312690956
 H          2.0324797062       -2.3092002227        4.6273267887
 H          2.2493068852       -3.4964124871        2.4506476198
  45
  -72.1905953392000       5.908837483438326E-002 !
 O          2.3537559113       -3.7011552792        0.4123705679
 C          2.1222900877       -2.5088057419        0.3274161881
 C          2.0075759141       -1.8223401287       -0.9733082673
 C          2.3840136881       -2.5298465813       -2.1169568282
 C          2.3495672932       -1.9344328930       -3.3584632397
 C          1.9427750182       -0.6123479453       -3.4642523112
 C          1.5619962179        0.0922475125       -2.3381370229
 C          1.5827425036       -0.4978083646       -1.0782582060
 C          1.0884784513        0.2852812128        0.1244648482
 C          1.6879506561        1.6857206208        0.1183147584
 C          3.0252459518        1.8355303813       -0.2331831564
 C          3.6294404752        3.0786856130       -0.2025978420
 C          2.9095323617        4.1931075833        0.1930232851
 C          1.5866381817        4.0499461522        0.5707914379
 C          0.9811310736        2.8049702003        0.5403724459
 C         -0.4326966237        0.2624510896       -0.0168811282
 C         -1.0903312827        1.1492864670       -0.8642318278
 C         -2.4613082303        1.0949931031       -1.0301574945
 C         -3.1881201348        0.1320181005       -0.3527549171
 Br        -5.0793261167        0.0560515254       -0.5711444113
 C         -2.5568487666       -0.7761944481        0.4769647507
 C         -1.1846795017       -0.7070566006        0.6372839303
 C          1.4882067703       -0.3476461446        1.4439610226
 C          1.3275662770        0.3689654743        2.6251417628
 C          1.6615607331       -0.1829581718        3.8479363311
 C          2.1602866636       -1.4750610692        3.9204382480
 C          2.3066384217       -2.2051084261        2.7611998747
 C          1.9718300850       -1.6550732830        1.5223950429
 H          2.7062990554       -3.5529018573       -1.9918307515
 H          2.6416354686       -2.4871665524       -4.2384838116
 H          1.9222980783       -0.1272264755       -4.4289366339
 H          1.2605449319        1.1234353981       -2.4403304410
 H          3.5975604541        0.9699782902       -0.5347572395
 H          4.6669439901        3.1758581286       -0.4858589691
 H          3.3789708366        5.1650979459        0.2140837882
 H          1.0188506314        4.9095610378        0.8954558800
 H         -0.0508554179        2.7139561917        0.8481555129
 H         -0.5375823987        1.9047200760       -1.4002210579
 H         -2.9601436138        1.7951612429       -1.6825603493
 H         -3.1276374067       -1.5322181028        0.9935900956
 H         -0.7036216529       -1.4246841743        1.2839481549
 H          0.9372597221        1.3744706503        2.5908044786
 H          1.5297211625        0.3987228023        4.7483094932
 H          2.4232819224       -1.9060611328        4.8744671606
 H          2.6764414173       -3.2196847579        2.7775348571
  45
  -72.1902586986000       4.138021447662390E-002 !
 O          3.6582174313       -3.1029908671        0.1479639224
 C          2.8169232695       -2.2234463613        0.1020359290
 C          2.3947214171       -1.6110013796       -1.1715573479
 C          2.8846539440       -2.1709141228       -2.3539063691
 C          2.4974993753       -1.6810948581       -3.5812178432
 C          1.6029110072       -0.6218069938       -3.6358624471
 C          1.1177982628       -0.0594367926       -2.4710782472
 C          1.5062133719       -0.5369392911       -1.2227277721
 C          0.9859007915        0.1478888272        0.0266859138
 C          1.7077348171        1.4960114243        0.0584347721
 C          2.9085513841        1.6197935599        0.7474648331
 C          3.6073169668        2.8139842128        0.7434111059
 C          3.1228396883        3.9042442596        0.0431523132
 C          1.9382035981        3.7854817767       -0.6616157867
 C          1.2402395666        2.5908852117       -0.6597073315
 C         -0.5310372486        0.2536809875       -0.0410120445
 C         -1.2521931077       -0.8139142543       -0.5671430666
 C         -2.6336233413       -0.7975011573       -0.5986618442
 C         -3.3064783084        0.2976001401       -0.0860691113
 Br        -5.2123338694        0.3378843267       -0.1311507354
 C         -2.6151402800        1.3615782902        0.4639769325
 C         -1.2319521399        1.3314946562        0.4887137596
 C          1.2910068458       -0.6208495369        1.2990851346
 C          0.7391729049       -0.1926804194        2.5023304050
 C          1.0009368340       -0.8549033864        3.6868296226
 C          1.8316696750       -1.9656084190        3.6985623905
 C          2.4002431886       -2.3912258726        2.5185926893
 C          2.1407663520       -1.7278518591        1.3171689167
 H          3.5698589395       -3.0013524591       -2.2691963297
 H          2.8799466103       -2.1190239888       -4.4906219111
 H          1.2806480638       -0.2331108930       -4.5905930850
 H          0.4156692738        0.7574149207       -2.5347325891
 H          3.3073488143        0.7781679582        1.2937788898
 H          4.5357452132        2.8890177566        1.2897128107
 H          3.6661294277        4.8371910683        0.0416799933
 H          1.5522716459        4.6258046544       -1.2196937976
 H          0.3194903992        2.5256780155       -1.2195033161
 H         -0.7284118765       -1.6729928851       -0.9595379212
 H         -3.1812194913       -1.6277396551       -1.0170487167
 H         -3.1495846499        2.2058721189        0.8718515466
 H         -0.7039093014        2.1673021267        0.9231116417
 H          0.0957561256        0.6733416065        2.5163582989
 H          0.5571067422       -0.5002821285        4.6051673339
 H          2.0361856756       -2.4842830526        4.6228358620
 H          3.0656165082       -3.2413347046        2.4881498639
  45
  -72.1899119138000       2.866958970773721E-002 !
 O          2.9644901026       -3.5273730013        0.0401141021
 C          2.4437272123       -2.4260473413        0.0548157439
 C          2.0923161368       -1.7133960741       -1.1884301835
 C          2.4377048934       -2.3180241477       -2.3997591858
 C          2.1843406907       -1.6931676675       -3.6001206987
 C          1.5880827996       -0.4402705387       -3.5981636142
 C          1.2396446213        0.1626266837       -2.4052201249
 C          1.4749732607       -0.4625999810       -1.1843049150
 C          1.0392426160        0.2303542080        0.0936467878
 C          1.7049792752        1.6002495562        0.1838303120
 C          1.0918790638        2.6916507447        0.7873035693
 C          1.7592303829        3.8987719479        0.9053491219
 C          3.0525703027        4.0321962387        0.4333602369
 C          3.6790679345        2.9444861432       -0.1496970647
 C          3.0127477308        1.7386795268       -0.2682102259
 C         -0.4830028255        0.2707411070        0.0129815371
 C         -1.2186636676       -0.7994087855        0.5123258900
 C         -2.5962826569       -0.8336863073        0.4032633246
 C         -3.2505009355        0.2127188766       -0.2217100225
 Br        -5.1501866502        0.1823874676       -0.3728183353
 C         -2.5422514762        1.2799656958       -0.7430660713
 C         -1.1642541471        1.3002133277       -0.6280302097
 C          1.4613880614       -0.5063807516        1.3508003378
 C          1.1595153211        0.0482221203        2.5910236781
 C          1.5364027464       -0.5741941916        3.7653880460
 C          2.2276772711       -1.7766773885        3.7287572142
 C          2.5177154725       -2.3475730311        2.5097819855
 C          2.1369385077       -1.7267064264        1.3174736632
 H          2.9137090532       -3.2865345605       -2.3581372354
 H          2.4523012069       -2.1682031873       -4.5314751404
 H          1.3941200325        0.0692957873       -4.5303085612
 H          0.7865017828        1.1414271064       -2.4238340071
 H          0.0836114459        2.6128078871        1.1672974731
 H          1.2632115882        4.7370476184        1.3722009827
 H          3.5706169873        4.9749079183        0.5251230944
 H          4.6927644056        3.0317800609       -0.5113600444
 H          3.5164986522        0.8941954988       -0.7157895142
 H         -0.7136099744       -1.6231767914        0.9939705886
 H         -3.1546556377       -1.6677858462        0.7993559799
 H         -3.0598488897        2.0879003782       -1.2371341767
 H         -0.6271857201        2.1405446352       -1.0402919937
 H          0.6201675925        0.9811649074        2.6399596109
 H          1.2897787460       -0.1192998492        4.7132546881
 H          2.5275614794       -2.2617200492        4.6452579297
 H          3.0397687405       -3.2903328878        2.4391769106
