  70
  -127.905956870000       0.321932488940680      !
 O         -3.4970893014       -5.1275095534       -1.7679913583
 C         -3.6862376060       -4.2059138505       -0.9849797387
 C         -4.9766918015       -3.9954131895       -0.3101184846
 C         -6.0267056712       -4.8693562832       -0.5982305404
 C         -7.2589137949       -4.7096736560        0.0007240559
 C         -7.4643764683       -3.6723382094        0.9038156204
 C         -6.4365812426       -2.8019256720        1.2002013946
 C         -5.1829471444       -2.9509368311        0.6024183719
 C         -4.1224295886       -2.0005198240        0.9620349351
 O         -4.2827890551       -1.1088184483        1.7823705841
 C         -2.8369251182       -2.1934471934        0.2631474960
 C         -1.8093505781       -1.2969422448        0.5239190058
 C         -0.5704664219       -1.4320642541       -0.0949553590
 N          0.4480401831       -0.5207495616        0.1791351470
 C          0.1363332098        0.8249619855        0.3656780703
 C          0.8495260395        1.6078197238        1.2880577028
 C          0.5200590242        2.9290108435        1.4656583245
 C         -0.5333516027        3.5145980397        0.7552363284
 C         -1.2334881082        2.7409522512       -0.1829933838
 C         -0.8938582551        1.4079288059       -0.3674429839
 C         -2.3379004518        3.2972655912       -0.9924185850
 O         -2.9267370059        2.6252894594       -1.8241403611
 C         -2.6736334652        4.7034449950       -0.7239214335
 C         -3.7256341950        5.2823873496       -1.4358560863
 C         -4.0752020857        6.6007440291       -1.2265594180
 C         -3.3781131847        7.3655922599       -0.2987441365
 C         -2.3367326654        6.8064127050        0.4137393781
 C         -1.9730351377        5.4740435819        0.2148854778
 C         -0.8618592571        4.9244810833        1.0106773211
 O         -0.2461085095        5.5953626916        1.8259335758
 C          1.7670995200       -0.9573657237        0.2599642511
 C          2.0668245165       -2.2317583392        0.7737784148
 C          3.3708560602       -2.6521780971        0.8481216797
 C          4.4238184935       -1.8263802891        0.4371992248
 C          4.1267295576       -0.5622616279       -0.0967270607
 C          2.8057526447       -0.1408073921       -0.1775344308
 C          5.1809916996        0.3511211700       -0.5808368594
 O          4.9154324850        1.4462706455       -1.0544504867
 C          6.5570454852       -0.1450075137       -0.4474721666
 C          7.6029339968        0.6767598591       -0.8735936157
 C          8.9127534654        0.2557701478       -0.7761083737
 C          9.2030695118       -0.9968864274       -0.2468378790
 C          8.1810646196       -1.8192209929        0.1801680638
 C          6.8503404578       -1.4074389930        0.0887473366
 C          5.8001562608       -2.3199981711        0.5675771843
 O          6.0515448388       -3.4226265857        1.0358459260
 C         -0.3576869253       -2.5020312743       -0.9813640985
 C         -1.3714042898       -3.3909478215       -1.2379523304
 C         -2.6311833454       -3.2441319781       -0.6455329103
 H         -5.8430980572       -5.6661040577       -1.3037760478
 H         -8.0637157283       -5.3904796809       -0.2330089314
 H         -8.4279294295       -3.5483157267        1.3750189754
 H         -6.5708375294       -1.9896176010        1.8991061434
 H         -1.9900542295       -0.5038705938        1.2349047183
 H          1.6380790701        1.1578949450        1.8721668277
 H          1.0487986860        3.5432059356        2.1791813594
 H         -1.4391452761        0.8397626520       -1.1070323865
 H         -4.2512911687        4.6687672224       -2.1523221957
 H         -4.8894557611        7.0373397744       -1.7853101242
 H         -3.6509423864        8.3971027520       -0.1337132398
 H         -1.7818807665        7.3801075448        1.1412479508
 H          1.2671339642       -2.8605554701        1.1351282655
 H          3.6218980763       -3.6214976676        1.2525586298
 H          2.6041770123        0.8288165660       -0.6094295821
 H          7.3522464711        1.6447500563       -1.2816254328
 H          9.7118310657        0.8992568394       -1.1125354929
 H         10.2281944807       -1.3268894628       -0.1690404114
 H          8.3814877070       -2.7954097683        0.5963744424
 H          0.5953917257       -2.5982207939       -1.4793684268
 H         -1.2345183263       -4.2094156887       -1.9290366882
  70
  -127.905954040000       0.320969842618092      !
 O         -6.0095738018       -3.6107428643       -0.5897730929
 C         -4.9196141770       -3.8820067385       -0.1029409499
 C         -4.6391561026       -5.1796409306        0.5313115276
 C         -5.6594704672       -6.1315148043        0.5772144995
 C         -5.4453177554       -7.3653402111        1.1555442944
 C         -4.2036649405       -7.6715130179        1.7019169787
 C         -3.1853123383       -6.7423439142        1.6636262849
 C         -3.3871093682       -5.4879931160        1.0830663347
 C         -2.2695440756       -4.5354754492        1.0751588607
 O         -1.1746649460       -4.7953519587        1.5530790593
 C         -2.5523346582       -3.2307714505        0.4452518454
 C         -1.5318171991       -2.2899130078        0.3999233629
 C         -1.7389452160       -1.0377659996       -0.1706196016
 N         -0.7028843133       -0.1085826732       -0.2080976480
 C         -0.9697645183        1.2483074838       -0.0505001738
 C         -2.0020018784        1.6863789612        0.7975224272
 C         -2.2490508008        3.0289207497        0.9397138270
 C         -1.4755331757        3.9836120689        0.2690592251
 C         -0.4635934132        3.5479264175       -0.6015960001
 C         -0.2181187002        2.1897013900       -0.7482105817
 C          0.3638447817        4.4920018157       -1.3782833111
 O          1.2123476425        4.1059529784       -2.1683063093
 C          0.0924094962        5.9150011532       -1.1344146774
 C          0.8682185122        6.8621148462       -1.8066805538
 C          0.6480869215        8.2108662888       -1.6208595718
 C         -0.3533023536        8.6394584168       -0.7564893930
 C         -1.1271917381        7.7160067021       -0.0847700448
 C         -0.9149555196        6.3473224302       -0.2600294707
 C         -1.7614816467        5.4059855797        0.4904520917
 O         -2.6528174039        5.7797072967        1.2411523487
 C          0.6120222365       -0.5393041080       -0.3870170263
 C          0.9025463505       -1.6122687397       -1.2446730730
 C          2.2025735810       -2.0202037631       -1.4156983603
 C          3.2555183746       -1.3767428955       -0.7566786999
 C          2.9654779286       -0.3197283922        0.1195055787
 C          1.6507656318        0.0913362501        0.2914707158
 C          4.0206674589        0.3824817468        0.8795245888
 O          3.7602481511        1.2955091543        1.6469198203
 C          5.3919057168       -0.0957341207        0.6489541184
 C          6.4357773033        0.5242995623        1.3379926196
 C          7.7392526571        0.1056190496        1.1653088157
 C          8.0236287129       -0.9406951632        0.2957662101
 C          7.0024429744       -1.5609183622       -0.3951310378
 C          5.6793996140       -1.1492176255       -0.2305807862
 C          4.6292308400       -1.8422214526       -0.9966464657
 O          4.8781407174       -2.7525295054       -1.7733827977
 C         -3.0050137961       -0.7237067614       -0.6957217566
 C         -4.0151077331       -1.6514812662       -0.6497580819
 C         -3.8087353014       -2.9226759115       -0.1005694921
 H         -6.6143747623       -5.8711328345        0.1452197340
 H         -6.2425185112       -8.0929750894        1.1838428210
 H         -4.0361661478       -8.6359134361        2.1576882608
 H         -2.2124336581       -6.9562080283        2.0808216977
 H         -0.5794104340       -2.5470264238        0.8404846376
 H         -2.5739022416        0.9620653892        1.3577797684
 H         -3.0263400921        3.3862537322        1.5987699329
 H          0.5580675099        1.8815649734       -1.4334939206
 H          1.6389313360        6.5042560431       -2.4731872780
 H          1.2531600894        8.9329799083       -2.1483013838
 H         -0.5256718573        9.6951867576       -0.6097718775
 H         -1.9091826350        8.0243954456        0.5932760636
 H          0.1016040988       -2.0948347166       -1.7842576539
 H          2.4478028852       -2.8334692531       -2.0823258629
 H          1.4531942259        0.8996399831        0.9806092463
 H          6.1899480401        1.3346057600        2.0082461002
 H          8.5370683471        0.5904791909        1.7076441960
 H          9.0432067038       -1.2689065929        0.1594655995
 H          7.1991228549       -2.3746035112       -1.0774230671
 H         -3.1641833005        0.2379366020       -1.1598733900
 H         -4.9898371852       -1.4355034042       -1.0613342444
  70
  -127.905939540000       0.316082528394206      !
 O         -4.8908238586       -3.7122856817        1.9945062037
 C         -3.9479825994       -3.8935508578        1.2354978869
 C         -3.6338104873       -5.2141697574        0.6676008878
 C         -4.4216748254       -6.3034104521        1.0442920500
 C         -4.1604085603       -7.5646236793        0.5503702969
 C         -3.1065372360       -7.7603156280       -0.3354704133
 C         -2.3215158833       -6.6935418265       -0.7201550270
 C         -2.5731152415       -5.4107707348       -0.2282690036
 C         -1.7099405676       -4.3103494443       -0.6775524742
 O         -0.8120463552       -4.4637180784       -1.4921096962
 C         -1.9966336015       -2.9943943051       -0.0733353989
 C         -1.1756636518       -1.9270395001       -0.4104951876
 C         -1.3967809012       -0.6600760838        0.1218826126
 N         -0.5617819829        0.3978254084       -0.2276378861
 C         -1.0824486656        1.6824768248       -0.3595887503
 C         -2.3770967645        1.8801482748       -0.8719944272
 C         -2.8817951052        3.1507522850       -0.9875175714
 C         -2.1246502210        4.2683442993       -0.6164492705
 C         -0.8391005118        4.0729879117       -0.0865288132
 C         -0.3295770499        2.7859073221        0.0297413716
 C          0.0030709909        5.1997516283        0.3611331698
 O          1.1225487661        5.0238458117        0.8199409209
 C         -0.5967236272        6.5326907111        0.2167436411
 C          0.1449282510        7.6420140373        0.6295316947
 C         -0.3751489393        8.9149567041        0.5229795010
 C         -1.6483772632        9.1043353622       -0.0030462698
 C         -2.3918141269        8.0190607537       -0.4181800466
 C         -1.8796768304        6.7243372404       -0.3165139616
 C         -2.7118422012        5.6034279424       -0.7812364668
 O         -3.8264805103        5.7670415885       -1.2604558000
 C          0.7973282939        0.1669674251       -0.4380902840
 C          1.4958845666        0.8643338740       -1.4367199488
 C          2.8282702881        0.6073031652       -1.6474439209
 C          3.5093486072       -0.3509608739       -0.8890696154
 C          2.8223208150       -1.0240401943        0.1326645622
 C          1.4755177927       -0.7632305495        0.3445036483
 C          3.4865051035       -2.0152074141        1.0050114302
 O          2.8891260408       -2.5780986200        1.9086938970
 C          4.9035891247       -2.2711120982        0.7081295266
 C          5.5864500852       -3.2069412366        1.4869706801
 C          6.9182697708       -3.4806060983        1.2514991098
 C          7.5919639814       -2.8247807454        0.2278413589
 C          6.9300037002       -1.8971173296       -0.5505299238
 C          5.5837866014       -1.6084634890       -0.3235815936
 C          4.9255477762       -0.6119600337       -1.1856414672
 O          5.5161104975       -0.0318395403       -2.0847835143
 C         -2.4785152756       -0.4629400848        0.9980529032
 C         -3.2958812193       -1.5154677832        1.3259652879
 C         -3.0610830411       -2.7999216873        0.8216448269
 H         -5.2336257104       -6.1265732043        1.7340584656
 H         -4.7746287188       -8.3995301277        0.8529202552
 H         -2.9025239068       -8.7468792560       -0.7238979761
 H         -1.4984799247       -6.8196447614       -1.4079055841
 H         -0.3728152463       -2.1014656566       -1.1119747622
 H         -2.9547859831        1.0284919909       -1.1984050571
 H         -3.8675460443        3.3249327329       -1.3925992027
 H          0.6558832921        2.6616246548        0.4548812333
 H          1.1308301600        7.4691724382        1.0349291367
 H          0.2063818371        9.7635919634        0.8502496133
 H         -2.0556147584       10.1007919516       -0.0884951873
 H         -3.3819453823        8.1410044225       -0.8316530386
 H          0.9719018493        1.5796522399       -2.0526120672
 H          3.3780800736        1.1191708534       -2.4231548696
 H          0.9722482722       -1.2884861267        1.1432800912
 H          5.0413293065       -3.7045543061        2.2751195206
 H          7.4359160592       -4.2040182482        1.8634440963
 H          8.6333776158       -3.0399845005        0.0408529743
 H          7.4322973265       -1.3752021191       -1.3514854646
 H         -2.6406101899        0.5122099522        1.4320695785
 H         -4.1233109424       -1.3877336068        2.0080539345
  70
  -127.904009780000       4.101514004702202E-002 !
 O         -3.7667593785       -4.9287468946       -1.9222299849
 C         -3.8099569554       -4.0729801494       -1.0469220262
 C         -4.9263008542       -3.9726447668       -0.0946867386
 C         -5.9602933883       -4.9077470804       -0.1828236193
 C         -7.0289915917       -4.8579185912        0.6870070036
 C         -7.0874921164       -3.8685663044        1.6633644504
 C         -6.0769272899       -2.9364792008        1.7615599683
 C         -4.9839768104       -2.9776879896        0.8916484798
 C         -3.9273807798       -1.9739126187        1.0584088189
 O         -3.9723922010       -1.0977773847        1.9113369049
 C         -2.7865130418       -2.1040470792        0.1347961640
 C         -1.7299535355       -1.2131729592        0.2753205242
 C         -0.6023225678       -1.3154856093       -0.5286983671
 N          0.4739700452       -0.4444007825       -0.3155438891
 C          0.1947470295        0.8968678944       -0.0613769600
 C          0.9424025694        1.6437905213        0.8637751208
 C          0.6118073211        2.9524168910        1.1162266795
 C         -0.4874775146        3.5548825737        0.4957596675
 C         -1.2262891110        2.8183400437       -0.4427283039
 C         -0.8747669478        1.5040910356       -0.7164810725
 C         -2.3959977420        3.3895891138       -1.1425145805
 O         -2.9931875611        2.7710459189       -2.0088828564
 C         -2.7945669025        4.7373065312       -0.7089762511
 C         -3.9542371232        5.2941769234       -1.2510990901
 C         -4.3721629985        6.5540487919       -0.8737913246
 C         -3.6328927297        7.2844955289        0.0491720315
 C         -2.4817651833        6.7489014812        0.5901496190
 C         -2.0520553815        5.4722217756        0.2261979379
 C         -0.8321688688        4.9378338316        0.8547720305
 O         -0.1529201745        5.5938761338        1.6308034611
 C          1.7606786117       -0.9546926793       -0.2172858986
 C          1.9684379433       -2.2872556414        0.1836892463
 C          3.2435554712       -2.7689725651        0.3415621693
 C          4.3574941056       -1.9449311105        0.1510409047
 C          4.1581948010       -0.6281832074       -0.2916011218
 C          2.8688083513       -0.1539068862       -0.4913522028
 C          5.2886927185        0.2966423496       -0.5214149184
 O          5.1228632765        1.4091467636       -0.9960717409
 C          6.6075192428       -0.2024607380       -0.1032800520
 C          7.6949707237        0.6716296946       -0.1457400340
 C          8.9489506925        0.2547162249        0.2524633978
 C          9.1409300968       -1.0496197444        0.6925938135
 C          8.0771257470       -1.9280997987        0.7313187805
 C          6.8014116975       -1.5178497405        0.3434718244
 C          5.6945431518       -2.4844061717        0.4348728777
 O          5.8677403773       -3.6541663314        0.7457639857
 C         -0.5400025383       -2.3180196573       -1.5102483656
 C         -1.5891754359       -3.1908348749       -1.6611530407
 C         -2.7301699717       -3.0995946031       -0.8541228111
 H         -5.8933998052       -5.6654226234       -0.9494181055
 H         -7.8205029376       -5.5882108513        0.6098341714
 H         -7.9231273649       -3.8304496563        2.3460793737
 H         -6.0980798326       -2.1582225593        2.5100309690
 H         -1.7917103478       -0.4625106750        1.0498694599
 H          1.7533901371        1.1754605886        1.4004531635
 H          1.1700658233        3.5385963066        1.8308414766
 H         -1.4507899902        0.9638373903       -1.4537847257
 H         -4.5110407036        4.7088691296       -1.9678010142
 H         -5.2731539349        6.9720395054       -1.2973017549
 H         -3.9592047107        8.2701961900        0.3453737966
 H         -1.8913719931        7.2964963065        1.3098171986
 H          1.1203868427       -2.9162952563        0.4067421910
 H          3.4175665780       -3.7848105246        0.6636467049
 H          2.7481149318        0.8530180411       -0.8637913807
 H          7.5227311234        1.6798303236       -0.4923625509
 H          9.7805188697        0.9426914413        0.2216912298
 H         10.1214368652       -1.3765353368        1.0049356671
 H          8.2012693172       -2.9465161893        1.0686818886
 H          0.3277623291       -2.3821015266       -2.1494155893
 H         -1.5706012026       -3.9627151609       -2.4162507292
