  72
  -111.468499280000       0.719869974332474      !
 N          1.5490102609        2.7282944605        1.5114582189
 C          0.8622747202        2.0990903206        0.8261470403
 C          0.0056782097        1.3586870666        0.0234594312
 C         -0.8436069516        2.0967067066       -0.7889056985
 N         -1.5237751738        2.7231996371       -1.4835455569
 C          0.0028172733       -0.0838398491        0.0308064399
 C          1.2073596350       -0.7796398155        0.3750415662
 C          1.1699766125       -2.0460976218        0.9999269377
 C          2.3327255662       -2.7045412990        1.3361944591
 C          3.5703643635       -2.1414771255        1.0731927999
 C          3.6331160412       -0.8812855810        0.4614514234
 N          4.8769141871       -0.2963017870        0.1952978229
 C          5.9321175276       -1.0792804253       -0.2623915847
 C          7.2488975397       -0.7768982441        0.0951931836
 C          8.2900324414       -1.5575672456       -0.3642966797
 C          8.0427227776       -2.6514556796       -1.1794501832
 C          6.7388139526       -2.9592289495       -1.5342097106
 C          5.6896060635       -2.1827044685       -1.0853062385
 C          5.0394345936        1.0822510906        0.3738740460
 C          5.8153056878        1.8241567811       -0.5185209420
 C          5.9700619646        3.1833433535       -0.3334381806
 C          5.3562593932        3.8201535079        0.7343634334
 C          4.5835889683        3.0879589226        1.6208848691
 C          4.4236411895        1.7279705283        1.4468424650
 C          2.4674011511       -0.2155003209        0.1218644292
 C         -1.1998228249       -0.7826629253       -0.3104305686
 C         -1.1571260735       -2.0606156088       -0.9119864774
 C         -2.3164889836       -2.7221744111       -1.2527847912
 C         -3.5560761945       -2.1511070142       -1.0185726782
 C         -3.6247934608       -0.8803687448       -0.4289294556
 N         -4.8715707597       -0.2902544053       -0.1933721361
 C         -5.9419706642       -1.0710121271        0.2344353000
 C         -5.7281112916       -2.1621170638        1.0809508188
 C         -6.7916272214       -2.9373302721        1.4976005551
 C         -8.0812604803       -2.6402283990        1.0859464883
 C         -8.3000963093       -1.5578305654        0.2476558606
 C         -7.2442883681       -0.7781107564       -0.1790363667
 C         -5.0326155638        1.0869406541       -0.3824472096
 C         -4.3913282641        1.7320144993       -1.4407777559
 C         -4.5538553079        3.0905500281       -1.6242144366
 C         -5.3544349557        3.8218131462       -0.7619718563
 C         -5.9941536735        3.1855247033        0.2909849097
 C         -5.8371234113        1.8279349562        0.4852960137
 C         -2.4622544892       -0.2120062940       -0.0831623253
 H          0.2139081587       -2.4791145535        1.2530156815
 H          2.2814367294       -3.6652795831        1.8277808919
 H          4.4803250273       -2.6453262910        1.3608348289
 H          7.4420406171        0.0641124554        0.7444298724
 H          9.3024777604       -1.3157144307       -0.0773335076
 H          8.8603183308       -3.2588934961       -1.5359998512
 H          6.5381659176       -3.8052883234       -2.1745447722
 H          4.6762198386       -2.4121576926       -1.3793047977
 H          6.2758498581        1.3303851622       -1.3619917244
 H          6.5628981797        3.7511751807       -1.0353052733
 H          5.4749917354        4.8842996923        0.8692693534
 H          4.0917732777        3.5745321195        2.4472179467
 H          3.8243712395        1.1587577470        2.1403508419
 H          2.5379592063        0.7376291045       -0.3811020073
 H         -0.1988843881       -2.4999768240       -1.1447957192
 H         -2.2607928182       -3.6915459133       -1.7263698868
 H         -4.4627115272       -2.6570889832       -1.3127053692
 H         -4.7261131410       -2.3833143793        1.4174147496
 H         -6.6138417359       -3.7740743458        2.1566318280
 H         -8.9101018186       -3.2472421868        1.4163270108
 H         -9.3010865939       -1.3244743671       -0.0832976351
 H         -7.4140351427        0.0545348026       -0.8454831069
 H         -3.7708410455        1.1637874073       -2.1161329877
 H         -4.0427284376        3.5763505866       -2.4392993644
 H         -5.4763225400        4.8845097314       -0.9049947577
 H         -6.6106249909        3.7522336569        0.9730974931
 H         -6.3187526837        1.3344286241        1.3171244580
 H         -2.5371823251        0.7490671977        0.4035991011
  72
  -111.466455500000       8.279379768171724E-002 !
 N          2.4258114976        4.0500410508        1.2885275379
 C          1.4276430792        3.6976823210        0.8231765850
 C          0.2190509127        3.2882800593        0.2792666783
 C         -0.4208119774        4.2027446881       -0.5456613703
 N         -0.9350013672        4.9665039759       -1.2447732954
 C         -0.3358956829        1.9872322885        0.5690102939
 C          0.5653445565        0.9118777126        0.8735408162
 C          0.2033652958       -0.1136278085        1.7738498133
 C          1.0833188918       -1.1272101182        2.0830431677
 C          2.3458154317       -1.1692664805        1.5163338107
 C          2.7291455790       -0.1633531717        0.6174102674
 N          3.9990140317       -0.2001271806        0.0328270047
 C          4.5674249345       -1.4193280827       -0.3278700198
 C          5.9478386738       -1.6134834501       -0.2298298555
 C          6.5059789453       -2.8243498905       -0.5863398337
 C          5.7053076007       -3.8612443189       -1.0401965526
 C          4.3354224146       -3.6753552424       -1.1386160149
 C          3.7662559410       -2.4668427594       -0.7904567429
 C          4.6889081504        0.9946662145       -0.2046315290
 C          5.4407055319        1.1532768813       -1.3704071060
 C          6.1185122503        2.3337913356       -1.5994111354
 C          6.0554254384        3.3684949879       -0.6782660296
 C          5.3098203433        3.2152687463        0.4793664530
 C          4.6310242447        2.0375761552        0.7207058801
 C          1.8485381588        0.8614399032        0.3086379206
 C         -1.7529857948        1.7933117387        0.5436562809
 C         -2.6599157772        2.8520121883        0.7755186444
 C         -4.0202547726        2.6408408007        0.7280646580
 C         -4.5401965834        1.3857551167        0.4552517111
 C         -3.6607166736        0.3231196103        0.2096390189
 N         -4.1591996658       -0.9577079205       -0.0701037933
 C         -5.2749069033       -1.1133942501       -0.8890892953
 C         -5.5209790574       -0.2136672822       -1.9289581877
 C         -6.6383578475       -0.3629975749       -2.7258492739
 C         -7.5220930926       -1.4082760052       -2.5086992548
 C         -7.2802498412       -2.3067710157       -1.4812000884
 C         -6.1698939564       -2.1642118891       -0.6736853398
 C         -3.4940809042       -2.0691948707        0.4538799207
 C         -3.3280992835       -3.2272745779       -0.3064293985
 C         -2.6496634218       -4.3095642539        0.2188631026
 C         -2.1254103548       -4.2560292891        1.5003883925
 C         -2.2929126564       -3.1101988257        2.2618075492
 C         -2.9734624820       -2.0249542833        1.7484082396
 C         -2.2933968223        0.5307080078        0.2468678068
 H         -0.7596529343       -0.0726392923        2.2582031132
 H          0.7927003361       -1.8921946491        2.7879121519
 H          3.0437659442       -1.9486660450        1.7806438492
 H          6.5706624075       -0.8127919593        0.1404164699
 H          7.5733133647       -2.9633610193       -0.5010985149
 H          6.1461612497       -4.8066637247       -1.3162395789
 H          3.7057231525       -4.4750137056       -1.4992385829
 H          2.7009112737       -2.3179372399       -0.8861089679
 H          5.4718754031        0.3540776336       -2.0968782516
 H          6.6892676859        2.4512380228       -2.5086679622
 H          6.5821483932        4.2914297561       -0.8662166457
 H          5.2441219873        4.0157939580        1.1980427193
 H          4.0552661666        1.9201980293        1.6253519862
 H          2.1470112571        1.6102303293       -0.4103493290
 H         -2.2829229069        3.8310837627        1.0259854410
 H         -4.6938488945        3.4617031827        0.9235761437
 H         -5.6058768680        1.2164190624        0.4450164944
 H         -4.8249537821        0.5915381897       -2.1107774775
 H         -6.8156160292        0.3373570019       -3.5281482806
 H         -8.3931661607       -1.5222170702       -3.1353623251
 H         -7.9676589577       -3.1198277908       -1.3009067837
 H         -5.9936076229       -2.8544428355        0.1382179208
 H         -3.7214099701       -3.2636192620       -1.3117216601
 H         -2.5209977141       -5.1982733309       -0.3809733968
 H         -1.5917686946       -5.1028660613        1.9040050199
 H         -1.8995755377       -3.0656532254        3.2664611785
 H         -3.1209326351       -1.1375200225        2.3458185640
 H         -1.6309489171       -0.2872625989        0.0034572602
  72
  -111.466429240000       8.052477933014351E-002 !
 N          2.7515115397        2.9940684393        2.7037066718
 C          1.7614307743        2.9489593116        2.1081645100
 C          0.5619052643        2.9075101951        1.4131597611
 C          0.0874603414        4.1239769363        0.9427903961
 N         -0.2870896876        5.1422976310        0.5442160354
 C         -0.1495130687        1.6674082106        1.2062213621
 C          0.6086764467        0.4514766680        1.1233432382
 C          0.0796362013       -0.7757610777        1.5790907513
 C          0.8271397547       -1.9315617060        1.5252462067
 C          2.1169814876       -1.9214368704        1.0224107925
 C          2.6661033601       -0.7156327950        0.5613335663
 N          3.9650824021       -0.6958369967        0.0471775276
 C          4.4485166584       -1.7811829282       -0.6819457088
 C          5.7893307658       -2.1597469134       -0.5767276468
 C          6.2661353998       -3.2346035675       -1.2993501761
 C          5.4212337679       -3.9506366370       -2.1333194844
 C          4.0901025158       -3.5801401072       -2.2414679110
 C          3.6026674344       -2.5042812644       -1.5265672024
 C          4.7826632372        0.4228796293        0.2496196804
 C          5.6241585235        0.8692958694       -0.7712811828
 C          6.4303330699        1.9715157000       -0.5694100613
 C          6.4084133893        2.6431150177        0.6437533885
 C          5.5752706492        2.2028345539        1.6594190886
 C          4.7677232551        1.0989228768        1.4700988686
 C          1.9171937925        0.4496937848        0.6162503366
 C         -1.5753102900        1.6792137087        1.0892738685
 C         -2.3632693345        2.7001461588        1.6673397062
 C         -3.7330719560        2.7044187352        1.5239032233
 C         -4.3801001898        1.7059021695        0.8140224819
 C         -3.6197174738        0.6872468157        0.2253967249
 N         -4.2510750890       -0.3377626170       -0.4946663664
 C         -3.7713920396       -1.6438548719       -0.3725991431
 C         -3.7126550336       -2.4903984508       -1.4804526254
 C         -3.2200391586       -3.7736796139       -1.3465631492
 C         -2.7763245176       -4.2315059043       -0.1162211829
 C         -2.8366797236       -3.3961049148        0.9881376516
 C         -3.3321400383       -2.1138318997        0.8665374369
 C         -5.3202833785       -0.0441470941       -1.3378875530
 C         -6.3574576062       -0.9632576834       -1.5135928627
 C         -7.4194854512       -0.6609806681       -2.3419017754
 C         -7.4710059796        0.5564771747       -3.0027357585
 C         -6.4455069874        1.4726690574       -2.8306494949
 C         -5.3755756199        1.1797932249       -2.0088954971
 C         -2.2422516680        0.6832992678        0.3560281453
 H         -0.9058268729       -0.7945799756        2.0173633443
 H          0.4092485521       -2.8566745844        1.8941820777
 H          2.7106139138       -2.8224545318        1.0096268649
 H          6.4438980005       -1.6118187044        0.0846972315
 H          7.3028125130       -3.5212628046       -1.2048856298
 H          5.7982477339       -4.7906865225       -2.6960025359
 H          3.4280924986       -4.1273574108       -2.8959476258
 H          2.5697129017       -2.2048558003       -1.6261122146
 H          5.6255252147        0.3566590224       -1.7224751582
 H          7.0706006430        2.3153317405       -1.3683318700
 H          7.0360072155        3.5082664551        0.7932367204
 H          5.5416183402        2.7214675977        2.6037252873
 H          4.1245939261        0.7562927028        2.2654637779
 H          2.3404403795        1.3634228773        0.2254228775
 H         -1.8894683593        3.4692429368        2.2568661093
 H         -4.3146623979        3.4880725196        1.9857426322
 H         -5.4554322190        1.6955025140        0.7243945657
 H         -4.0426102760       -2.1288688410       -2.4433322465
 H         -3.1738962717       -4.4181802433       -2.2118117508
 H         -2.3886966901       -5.2338810885       -0.0181042784
 H         -2.5053302149       -3.7497474931        1.9531875739
 H         -3.3980389985       -1.4674822184        1.7293418965
 H         -6.3290619648       -1.9043689149       -0.9843778855
 H         -8.2183740668       -1.3770384187       -2.4648140187
 H         -8.3045518723        0.7889951087       -3.6474902841
 H         -6.4750780564        2.4208539679       -3.3462521077
 H         -4.5697217012        1.8882542721       -1.8884811785
 H         -1.6687620269       -0.0796953287       -0.1500503487
  72
  -111.466333960000       7.280176142667097E-002 !
 N          2.4270558618        4.1128159307        0.9307947843
 C          1.4403360482        3.7064223013        0.4850618161
 C          0.2428990551        3.2385013608       -0.0353744670
 C         -0.3933471481        4.0730765278       -0.9439785896
 N         -0.9061574549        4.7696179615       -1.7107860573
 C         -0.3149028444        1.9642765972        0.3563594749
 C          0.5782569652        0.9099907754        0.7374991517
 C          0.1950189790       -0.0785484994        1.6714005941
 C          1.0646666502       -1.0798520125        2.0425554744
 C          2.3446022940       -1.1412910452        1.5174131394
 C          2.7556254964       -0.1629955461        0.6009111126
 N          4.0525526519       -0.2015744488        0.0762255747
 C          4.6404720537       -1.4219024968       -0.2438290107
 C          6.0154843328       -1.6121856785       -0.0811952417
 C          6.5912473611       -2.8251495993       -0.4004953222
 C          5.8138453688       -3.8678840853       -0.8808036556
 C          4.4491524813       -3.6864760918       -1.0413210165
 C          3.8624858818       -2.4763491924       -0.7298108356
 C          4.7507675516        0.9946233053       -0.1249028727
 C          5.5698336891        1.1534535859       -1.2443985884
 C          6.2575151584        2.3351936551       -1.4342176683
 C          6.1385908285        3.3705260311       -0.5193633327
 C          5.3258795746        3.2174701875        0.5920812214
 C          4.6353603760        2.0391865606        0.7933664819
 C          1.8816070693        0.8415842076        0.2188680952
 C         -1.7369267436        1.7902204019        0.3513113977
 C         -2.6185263650        2.8806296073        0.5234299088
 C         -3.9836540099        2.6975132475        0.5043499753
 C         -4.5327009750        1.4386006674        0.3235161552
 C         -3.6792427329        0.3431976979        0.1404324837
 N         -4.2092350342       -0.9428645920       -0.0366604490
 C         -5.3531959198       -1.1316792637       -0.8089905316
 C         -5.6046273801       -0.3138071431       -1.9129349472
 C         -6.7500874963       -0.4932158656       -2.6624776878
 C         -7.6572863279       -1.4877959525       -2.3329141121
 C         -7.4101287631       -2.3054122140       -1.2412879512
 C         -6.2709635264       -2.1324021842       -0.4811372937
 C         -3.5645562413       -2.0282850889        0.5624276628
 C         -3.4453358311       -3.2461360426       -0.1079926780
 C         -2.7895558215       -4.3046284245        0.4896184623
 C         -2.2421513985       -4.1679849273        1.7552619411
 C         -2.3639283039       -2.9624340416        2.4280596963
 C         -3.0216564519       -1.8999925616        1.8420232290
 C         -2.3066836674        0.5234733915        0.1431664302
 H         -0.7783682540       -0.0185407758        2.1320084797
 H          0.7517875612       -1.8189440475        2.7653872288
 H          3.0349018853       -1.9095538977        1.8301373553
 H          6.6195195089       -0.8068921170        0.3095720402
 H          7.6537566550       -2.9613016892       -0.2650549004
 H          6.2687139586       -4.8144822814       -1.1288210300
 H          3.8377675237       -4.4913460940       -1.4214471609
 H          2.8021584084       -2.3305472498       -0.8736718922
 H          5.6461297682        0.3531451301       -1.9662906923
 H          6.8799699343        2.4533936044       -2.3088473205
 H          6.6742669837        4.2940005849       -0.6763623623
 H          5.2175054973        4.0192858163        1.3040007897
 H          4.0069723625        1.9201051850        1.6622665028
 H          2.2053476622        1.5617981403       -0.5180137251
 H         -2.2183526572        3.8655169541        0.7063747251
 H         -4.6370016143        3.5444310407        0.6512224743
 H         -5.6016726285        1.2918779046        0.3390315280
 H         -4.8909086582        0.4508632275       -2.1809192432
 H         -6.9318407477        0.1435571404       -3.5151772005
 H         -8.5507157525       -1.6251402220       -2.9223295600
 H         -8.1159586584       -3.0773581866       -0.9730111347
 H         -6.0896658965       -2.7582406177        0.3803449150
 H         -3.8580979257       -3.3481561170       -1.1009051714
 H         -2.6971084553       -5.2406271732       -0.0409619879
 H         -1.7271822192       -4.9970922970        2.2158668112
 H         -1.9531406941       -2.8524987450        3.4207171736
 H         -3.1356270403       -0.9657454913        2.3719032367
 H         -1.6656990386       -0.3229078487       -0.0566064273
  72
  -111.465858310000       4.400968722899399E-002 !
 N          2.4528043629        4.0643881585        0.8564332587
 C          1.4915416535        3.6342393952        0.3790948266
 C          0.3242696141        3.1390274421       -0.1813541470
 C         -0.2479078542        3.9062108740       -1.1860847589
 N         -0.7049358854        4.5353137153       -2.0412879481
 C         -0.2678008366        1.8969716412        0.2702462764
 C          0.6119239226        0.8542817978        0.7104302488
 C          0.2276512070       -0.0876309581        1.6898801932
 C          1.1070719218       -1.0573212735        2.1206849266
 C          2.3925990871       -1.1343354476        1.6111262884
 C          2.8009608099       -0.2086251957        0.6399881761
 N          4.0973332055       -0.2525490516        0.1211599558
 C          4.7481623660       -1.4616630172       -0.0994163320
 C          6.1375810847       -1.5445784111        0.0334165964
 C          6.7886354868       -2.7387540121       -0.1983353696
 C          6.0733950153       -3.8703761213       -0.5592139236
 C          4.6954024356       -3.7961952656       -0.6879653654
 C          4.0331811420       -2.6054962132       -0.4647067274
 C          4.7427109934        0.9504637074       -0.2067684955
 C          5.4633476499        1.0574622204       -1.3966458087
 C          6.0953397692        2.2428192057       -1.7152155045
 C          6.0208306219        3.3287323799       -0.8560339901
 C          5.3087259588        3.2245888829        0.3274198488
 C          4.6695439746        2.0446852777        0.6542703385
 C          1.9169419640        0.7636515431        0.2000198753
 C         -1.6920649255        1.7621226609        0.2513714127
 C         -2.5349366732        2.8956446153        0.3087963917
 C         -3.9043379712        2.7676069141        0.2478682977
 C         -4.4977788164        1.5206932959        0.1396912345
 C         -3.6846774913        0.3821337974        0.0870195546
 N         -4.2720696011       -0.8893792080       -0.0081728285
 C         -5.3618231202       -1.0801394745       -0.8568394641
 C         -5.4436838513       -0.3773078737       -2.0609376330
 C         -6.5303323465       -0.5528612029       -2.8942350423
 C         -7.5470470682       -1.4284846262       -2.5473200262
 C         -7.4709267036       -2.1279220456       -1.3529730928
 C         -6.3911276864       -1.9578195396       -0.5097426118
 C         -3.7599725345       -1.9383049185        0.7547504352
 C         -3.7368141992       -3.2411437947        0.2537091946
 C         -3.2264727289       -4.2703359278        1.0199802764
 C         -2.7260532937       -4.0216022169        2.2880835409
 C         -2.7437176951       -2.7295641761        2.7894678576
 C         -3.2579598110       -1.6946005182        2.0350476561
 C         -2.3067210321        0.5040259774        0.1319426557
 H         -0.7500091709       -0.0152894706        2.1400237948
 H          0.7961607151       -1.7588067320        2.8811833147
 H          3.0880233629       -1.8741899427        1.9765503705
 H          6.6944500092       -0.6681025866        0.3297660070
 H          7.8616861679       -2.7890246522       -0.0891926369
 H          6.5866683753       -4.8022591303       -0.7398698442
 H          4.1322137283       -4.6713798533       -0.9760346582
 H          2.9620808964       -2.5455805269       -0.5885099059
 H          5.5073825194        0.2129161907       -2.0692581484
 H          6.6408879089        2.3221857351       -2.6438327963
 H          6.5132103104        4.2541827204       -1.1124504009
 H          5.2359003877        4.0660832920        0.9967927827
 H          4.1115280118        1.9644241545        1.5742661704
 H          2.2354134755        1.4425407190       -0.5774382398
 H         -2.1006252130        3.8755117457        0.4313373430
 H         -4.5256147851        3.6489378485        0.3011034659
 H         -5.5715212540        1.4161474282        0.1133940193
 H         -4.6462318376        0.2962654174       -2.3374235598
 H         -6.5802849570       -0.0068303051       -3.8243111343
 H         -8.3941561413       -1.5637240663       -3.2020460791
 H         -8.2639808201       -2.8045630049       -1.0711989501
 H         -6.3421142926       -2.4905343841        0.4286555694
 H         -4.1115369168       -3.4344903425       -0.7406400039
 H         -3.2120737194       -5.2735008389        0.6204849108
 H         -2.3264575497       -4.8292600161        2.8820063520
 H         -2.3640877154       -2.5285023449        3.7803296316
 H         -3.2926369107       -0.6915041381        2.4340964918
 H         -1.6981244745       -0.3824988001        0.0292465417
