  57
        -77.86227708
 C         -5.6207076865       -1.0928236600       -1.0029489415
 C         -4.7281485838       -1.4711388062        0.1889295396
 C         -4.5395407225       -2.9907002434        0.1787948048
 C         -5.4238308535       -1.0840788827        1.5029314219
 C         -3.4160369042       -0.7149939697        0.0839682605
 C         -3.4432413198        0.6886535335        0.0673280893
 C         -2.2921372305        1.4537883669       -0.0384769732
 C         -1.0777141449        0.7961914415       -0.1379039754
 C         -1.0170001113       -0.6231733135       -0.0747220771
 C         -2.1857812315       -1.3654659279        0.0222905143
 C          0.3717462195       -0.9715661333       -0.1180178599
 C          1.0514153122       -2.1798886699       -0.1081183841
 C          2.4408296597       -2.1925759436       -0.2185789931
 C          3.2428915403       -3.4801114358       -0.2018644454
 C          4.2356090114       -3.4285093349        0.9693079672
 C          2.3667843986       -4.7241501113       -0.0306203621
 C          4.0090830296       -3.6122151079       -1.5269754172
 C          3.1222362899       -0.9732042998       -0.3612826225
 C          2.4701177818        0.2470312752       -0.3659688150
 C          1.0925441197        0.2519310753       -0.2136850002
 N          0.2040935993        1.3052713123       -0.2226628668
 C          0.5219367919        2.6411203187       -0.3194023413
 C         -0.1759558833        3.4738020309       -1.1916056225
 C          0.1289376781        4.8102231999       -1.3082350712
 C          1.1550642789        5.3692572446       -0.5016958328
 C          1.8431500486        4.5927565071        0.3840756445
 C          1.5621369555        3.2130100972        0.5289942105
 C          2.1340680362        2.4926042675        1.5588483608
 N          2.6492624313        1.9026843530        2.4179125419
 H         -5.1238456320       -1.3415324108       -1.9383932425
 H         -6.5586835313       -1.6411960172       -0.9536477046
 H         -5.8482640022       -0.0307981250       -1.0095313720
 H         -3.9467207527       -3.3183892765        1.0296906133
 H         -4.0605730384       -3.3205013324       -0.7403979587
 H         -5.5113708615       -3.4755116732        0.2426362914
 H         -6.3569955262       -1.6333559995        1.6054091778
 H         -4.7858850471       -1.3245907686        2.3507911303
 H         -5.6485955135       -0.0219494980        1.5368564800
 H         -4.3861101326        1.2045018835        0.1469307416
 H         -2.3493801037        2.5312166343       -0.0246219507
 H         -2.1160016787       -2.4389410696        0.0566136350
 H          0.4873320682       -3.0922723038       -0.0191174377
 H          4.8102912327       -4.3510341864        1.0109372553
 H          3.7008635231       -3.3099518243        1.9089820093
 H          4.9283981599       -2.5987602417        0.8675803432
 H          1.6662392600       -4.8285961171       -0.8560495754
 H          1.8154053692       -4.6881168517        0.9060109792
 H          2.9977220846       -5.6102218508       -0.0136981897
 H          4.5789582265       -4.5385774614       -1.5349976719
 H          4.6998043934       -2.7866251848       -1.6711538988
 H          3.3139872851       -3.6264973240       -2.3639663788
 H          4.1936068759       -0.9724658422       -0.4721490971
 H          3.0258902862        1.1621586795       -0.4895753065
 H         -0.9179876008        3.0277421372       -1.8390527022
 H         -0.3835834162        5.4268105099       -2.0277624550
 H          1.3881334558        6.4182803661       -0.5987681193
 H          2.6124722316        5.0176636464        1.0126243929
