57
 energy: -77.895788232454 gnorm: 0.000080648409 xtb: 6.7.1 (edcfbbe)
C           -5.62130100458473       -1.00006416980284       -1.03301071811467
C           -4.75520678041814       -1.36838250863341        0.18241745022884
C           -4.59598282647103       -2.89149011153347        0.21159706016291
C           -5.46572946891211       -0.93697126563602        1.47549956782696
C           -3.42726394367519       -0.63989865409342        0.07947620174909
C           -3.42244321863040        0.76386514736279        0.04500133212552
C           -2.25702092097676        1.50308222562869       -0.05995292462891
C           -1.05362163587990        0.81803012186142       -0.14315058827907
C           -1.02650129707182       -0.60011618775620       -0.06967857187301
C           -2.20822652412071       -1.31644373597038        0.03033033088402
C            0.35855108559853       -0.98145172968613       -0.11222445716794
C            1.00769751571009       -2.20395258539164       -0.10157030996702
C            2.39812549029292       -2.25143868856473       -0.21158640322221
C            3.16798302823763       -3.55904979822948       -0.19460648695309
C            3.93643760237180       -3.70861532943839       -1.51761587037228
C            4.15810107433752       -3.53464554718598        0.98096599844745
C            2.26002413509104       -4.78148017814410       -0.02891515278375
C            3.10588621702131       -1.04674129650979       -0.35479199927883
C            2.48299034826341        0.18705642771220       -0.36443856521673
C            1.10384662676355        0.22469452145178       -0.21316860953912
N            0.23937236601483        1.29862589633666       -0.22768993032763
C            0.59147902823290        2.63027876984857       -0.32301544187621
C           -0.06442985099143        3.47489836810610       -1.21167830754547
C            0.27130113261457        4.80687897766585       -1.32269630699007
C            1.29026457071277        5.34377268038984       -0.49044007580388
C            1.93975380551880        4.55592042606340        0.41203645545151
C            1.62559813595361        3.17781875312122        0.55471522839140
C            2.15238027831286        2.45198212827372        1.59806561949879
N            2.63497502470860        1.85351010527570        2.47518037660638
H           -5.11628848920598       -1.28247633221354       -1.95460403160927
H           -6.57103225102782       -1.52792897331037       -0.98387470980978
H           -5.82622008928230        0.06603557445607       -1.06851050204299
H           -4.01712593695649       -3.20863407986978        1.07593024017286
H           -4.11748285599264       -3.25382898663839       -0.69527470686867
H           -5.57807944288384       -3.35477203315230        0.27938988565442
H           -4.84634900919740       -1.16678268236322        2.34019056507224
H           -5.67562437192992        0.12870933491875        1.48024480300895
H           -6.40878505495148       -1.46986769476103        1.57471505514759
H           -4.35496934599158        1.30066707071095        0.10959301350764
H           -2.28966378924272        2.58179892880543       -0.06148462033896
H           -2.16201552915920       -2.39074393172593        0.07625067114789
H            0.42283040985925       -3.10337761203850       -0.01391982390190
H            4.47896897892676       -4.65125920565724       -1.52469681422074
H            4.65207488945821       -2.90344395675997       -1.65606736330614
H            3.24494296275180       -3.70060664536999       -2.35771007260206
H            3.62408558079385       -3.40387529559005        1.92001872439326
H            4.87397653793409       -2.72356098996474        0.88375877144147
H            4.70766267120995       -4.47245840245378        1.02202561632937
H            2.86974922460079       -5.68235826290507       -0.01296002107333
H            1.56031571747001       -4.86617338223827       -0.85707709276844
H            1.70803198794924       -4.73480611553686        0.90687331161025
H            4.17776484351856       -1.06897384425939       -0.46588974844494
H            3.05939676778555        1.09045693567272       -0.49062538622796
H           -0.80199628710495        3.04578352006775       -1.87552418766842
H           -0.20909839452594        5.43411717895656       -2.05552100509444
H            1.55018722687017        6.38784400829314       -0.58328191576293
H            2.70420021208790        4.96551364244285        1.05820857205588
