57
 energy: -77.997577428619 gnorm: 0.000044654835 xtb: 6.7.1 (edcfbbe)
C           -5.60620224141431       -1.30656494565861        0.10549482090148
C           -4.18069525549016       -1.86699610997462        0.08622203200367
C           -4.03617681709086       -2.75580879432876       -1.15842119709534
C           -3.98501228765868       -2.71248128479984        1.35366711705855
C           -3.11517194090739       -0.77922374549503        0.04313685250807
C           -3.43204192687204        0.58169666523171        0.02768775757472
C           -2.46693047796956        1.57258041948511       -0.02150560516856
C           -1.13807802926481        1.18972911732954       -0.06578021480106
C           -0.78781780370463       -0.17620412487072       -0.02629192370313
C           -1.77532088217450       -1.14711614116728        0.02394958042047
C            0.65002865947727       -0.23200755711421       -0.04126903190172
C            1.55521376211473       -1.28491422643233       -0.04908002493564
C            2.91510526936031       -1.02403624841439       -0.10418943487552
C            3.96472952239822       -2.12714360180837       -0.10216628222342
C            3.34784328534123       -3.52683946392207       -0.01807301949848
C            4.78853493904078       -2.04645824841458       -1.39619109052553
C            4.88462696755564       -1.93905353202182        1.11342320648842
C            3.33591303889738        0.31037067888150       -0.17364346732029
C            2.45823702591168        1.37586991047610       -0.16799770051706
C            1.10383705426482        1.10143171313611       -0.07560285475317
N            0.01478760977667        1.95886828467911       -0.08805636476967
C            0.06414388709336        3.35069342411071       -0.12242327913787
C           -0.66165919233989        4.05703352032248       -1.07864617335644
C           -0.60448129787792        5.43704505637524       -1.12766513133305
C            0.18531411807639        6.14185220468778       -0.22883201039577
C            0.90371985609100        5.46264156886412        0.73419661913706
C            0.84185768027993        4.06855596017538        0.80410012706822
C            1.51538889850098        3.41277213031234        1.85690050572000
N            2.04176308803483        2.92463162085577        2.75311992682638
H           -5.80912063507963       -0.71833939875816       -0.78667849275357
H           -6.31689967055664       -2.13041495776510        0.13223831970238
H           -5.77415944264004       -0.69104311339494        0.98645726221708
H           -3.06174877410332       -3.23517828367709       -1.19220534225185
H           -4.15403676691958       -2.16008358839075       -2.06168316535929
H           -4.79815607408050       -3.53262860061609       -1.15494262589978
H           -3.01223379007991       -3.19625952683193        1.36210545398050
H           -4.06032310350939       -2.08526825063147        2.24007189227869
H           -4.74953654532735       -3.48472713639630        1.41093392412959
H           -4.46250567036252        0.89471706061709        0.05802485735215
H           -2.75454057745754        2.61363294463089       -0.01522670388652
H           -1.48366995844945       -2.18548052192246        0.05181720853340
H            1.17462413614011       -2.29205182578088       -0.01710982668432
H            4.14140187539014       -4.27153709606506       -0.00947556642689
H            2.70986762724181       -3.72642326305258       -0.87614585423460
H            2.76800204661142       -3.64356074431884        0.89471344842158
H            5.31192943073649       -1.09758806431434       -1.47520995100435
H            4.13911541869586       -2.15085850250356       -2.26343817105601
H            5.52711721737828       -2.84519462173607       -1.41932321603570
H            5.62954770176394       -2.73162646483791        1.14618767917823
H            4.30317509216046       -1.97157618776409        2.03289582731572
H            5.40361714440133       -0.98525896338712        1.07553968092595
H            4.39030298760178        0.53147337433158       -0.23738336777725
H            2.83029383349885        2.38784466825668       -0.23716689275714
H           -1.25396675862463        3.50594933740939       -1.79341444393308
H           -1.16871001077816        5.96702931861502       -1.87996176734941
H            0.23639816285395        7.21837740036284       -0.27775523126996
H            1.51275859405102        5.99514975742577        1.45007432524964
