  57
        -77.96643372
 C         -5.6250758387       -1.0343093811       -1.0187071782
 C         -4.7477116739       -1.3800079910        0.1926956034
 C         -4.5763847251       -2.9010830744        0.2352578325
 C         -5.4499828635       -0.9431080346        1.4859610202
 C         -3.4198271395       -0.6465433607        0.0736029926
 C         -3.4230939912        0.7531236532        0.0186527253
 C         -2.2687112082        1.5020929544       -0.0934592509
 C         -1.0609897632        0.8270982252       -0.1635920528
 C         -1.0267630971       -0.5796320420       -0.0846924594
 C         -2.2032450790       -1.3077353927        0.0292440766
 C          0.3589551871       -0.9595497338       -0.1350665480
 C          1.0020113240       -2.1898072411       -0.1231786972
 C          2.3824596071       -2.2433680028       -0.2207206961
 C          3.1560588267       -3.5531625900       -0.1960562034
 C          3.9199046596       -3.7144375731       -1.5178771213
 C          4.1451086762       -3.5278611813        0.9775202764
 C          2.2443078208       -4.7707619729       -0.0214972870
 C          3.0910714555       -1.0429689129       -0.3578604224
 C          2.4773706660        0.1929405119       -0.3725503558
 C          1.1002485410        0.2345801918       -0.2311099194
 N          0.2323465985        1.3140190256       -0.2451516002
 C          0.5913969999        2.6563188909       -0.3134865967
 C         -0.0038181026        3.4972360876       -1.2512189111
 C          0.3534994207        4.8296398227       -1.3293071776
 C          1.3193452099        5.3503489455       -0.4789288714
 C          1.9163170974        4.5366580285        0.4624434692
 C          1.5532524103        3.1921992479        0.5614909929
 C          2.1193218022        2.4125768453        1.5947906340
 N          2.5718403368        1.8289078440        2.4727622267
 H         -5.1255641906       -1.3282933067       -1.9395739518
 H         -6.5741615682       -1.5625428142       -0.9566586632
 H         -5.8317712772        0.0310106008       -1.0687097857
 H         -3.9878018235       -3.2041365056        1.0980429613
 H         -4.0979432916       -3.2662755823       -0.6705957571
 H         -5.5535344432       -3.3734392182        0.3130988463
 H         -4.8214534050       -1.1630379483        2.3464533773
 H         -5.6612470107        0.1225234189        1.4829766571
 H         -6.3913147500       -1.4766147821        1.5997698513
 H         -4.3618941168        1.2828623519        0.0696638002
 H         -2.3157840499        2.5809606214       -0.1129116408
 H         -2.1406979891       -2.3810566054        0.0867719053
 H          0.4056370099       -3.0825373038       -0.0414001938
 H          4.4625213321       -4.6574802799       -1.5245407624
 H          4.6348726119       -2.9095971040       -1.6626015500
 H          3.2258350391       -3.7088619598       -2.3559628874
 H          3.6109192518       -3.3851123500        1.9143076106
 H          4.8649414971       -2.7215532788        0.8722908775
 H          4.6906737883       -4.4678192414        1.0290503193
 H          2.8485171871       -5.6754643284        0.0025637680
 H          1.5438047783       -4.8574185758       -0.8488247964
 H          1.6902756936       -4.7114293686        0.9123177405
 H          4.1646140486       -1.0705638588       -0.4591037682
 H          3.0644916886        1.0907475804       -0.4954488815
 H         -0.7349867787        3.0847317917       -1.9303376648
 H         -0.1147491386        5.4645852066       -2.0661664900
 H          1.6025191825        6.3889824101       -0.5495846857
 H          2.6609236194        4.9279691500        1.1401804143
