  85
       -125.67508548
 C          1.4589162846        4.4784998613       -1.0709811368
 C          2.2982094837        3.9286245064        0.0907552938
 C          3.7590201885        4.3182304981       -0.1519178451
 C          1.8444757386        4.5697268457        1.4100028652
 C          2.0953965498        2.4236926702        0.1784545360
 C          3.1438185016        1.5258803549        0.0566047315
 C          2.9179036188        0.1483924227        0.1050652509
 C          1.6160880733       -0.3522848773        0.2795884739
 C          0.5713834648        0.5695983674        0.4664489972
 C          0.8095500172        1.9352993404        0.3892309806
 N         -0.7149050869        0.0875887251        0.6792864476
 C         -1.6313323012        0.8066214864        1.4541730831
 C         -1.1985832476        1.6005914562        2.5161804379
 C         -2.1084939524        2.2982389114        3.2841004950
 C         -3.4643549227        2.2003411076        3.0179607102
 C         -3.9030792817        1.3746112234        1.9992270162
 C         -3.0000083870        0.6654258393        1.2224620380
 C         -3.4528338819       -0.2394162535        0.1031460154
 C         -4.8725745406       -0.7178824002        0.2876608715
 C         -5.3867162601       -1.4947793446        1.3043490992
 C         -6.7361006758       -1.8190504602        1.2744251917
 C         -7.5509957441       -1.3711715811        0.2451871853
 C         -7.0392609108       -0.5896477419       -0.7781900916
 C         -5.6930969029       -0.2634702639       -0.7537815506
 C         -4.8821349489        0.5229923113       -1.6695935873
 C         -5.2190645098        1.1847797515       -2.8383191262
 C         -4.2280179587        1.8697013586       -3.5226921506
 C         -2.9253498369        1.8906197617       -3.0498074045
 C         -2.5805691595        1.2283159788       -1.8787803436
 C         -3.5635787228        0.5482785047       -1.1931487057
 C         -2.4670809929       -1.3774059629       -0.0565136950
 C         -2.8807777203       -2.5993102851       -0.5524362483
 C         -1.9602712566       -3.6062055096       -0.8022863705
 C         -0.6239620398       -3.3884529011       -0.5502673239
 C         -0.1570340752       -2.1785134299       -0.0282387039
 C         -1.1074821406       -1.1612389716        0.2025965246
 B          1.3325952054       -1.8388285603        0.2081632962
 C          2.5837531073       -2.7316226631        0.2678915045
 C          2.5675910832       -4.1149943553        0.4850963650
 C          3.7146946537       -4.8751103182        0.4976495478
 C          4.9412594123       -4.2564230205        0.2870367830
 C          5.0083634588       -2.8948859620        0.1034438079
 C          3.8454832551       -2.1109560860        0.1115611913
 N          3.9657080650       -0.7397472970       -0.0325616277
 C          5.2550086098       -0.1981294352       -0.3131108909
 C          5.6711762030       -0.0642072411       -1.6308243265
 C          6.9159108291        0.4733863310       -1.9080009896
 C          7.7440351931        0.8787944936       -0.8747551693
 C          7.3281391717        0.7456165149        0.4400518046
 C          6.0856807363        0.2080405730        0.7242882534
 H          0.3987788766        4.2969646257       -0.9167529025
 H          1.7545181995        4.0038833446       -2.0045287149
 H          1.6091915154        5.5519522865       -1.1662773817
 H          3.8389026497        5.4019735765       -0.2111933626
 H          4.3969451194        3.9791415020        0.6611208652
 H          4.1256819397        3.9025645769       -1.0878589985
 H          2.0006860888        5.6460389232        1.3768189088
 H          2.4178187412        4.1640102339        2.2414787008
 H          0.7904493379        4.3851378338        1.5988361589
 H          4.1484340067        1.8838537710       -0.0850302719
 H         -0.0220512739        2.6173908305        0.4754464469
 H         -0.1439955788        1.6600922654        2.7392280008
 H         -1.7570608460        2.9152464086        4.0977964507
 H         -4.1775093429        2.7552707095        3.6080900386
 H         -4.9600468340        1.2812627636        1.7989641902
 H         -4.7509432212       -1.8440679281        2.1051358253
 H         -7.1564473788       -2.4281262043        2.0612884841
 H         -8.5983537779       -1.6364757246        0.2422205577
 H         -7.6775189865       -0.2434926859       -1.5776135462
 H         -6.2332288023        1.1683008571       -3.2092034932
 H         -4.4721972536        2.3922910821       -4.4361795680
 H         -2.1661452086        2.4282986129       -3.5988709684
 H         -1.5607157008        1.2497262473       -1.5254651338
 H         -3.9257701070       -2.7583038819       -0.7742644378
 H         -2.2954992503       -4.5488000726       -1.2095693460
 H          0.0918069215       -4.1609865366       -0.7856851868
 H          1.6165352473       -4.5918165967        0.6687010783
 H          3.6671537816       -5.9406362037        0.6679991091
 H          5.8504460458       -4.8403217824        0.2815973060
 H          5.9728817789       -2.4288732275       -0.0339647596
 H          5.0152633769       -0.3830492122       -2.4273810520
 H          7.2387015194        0.5772383420       -2.9331044289
 H          8.7141844139        1.2990120601       -1.0934479464
 H          7.9737253890        1.0604382291        1.2462348712
 H          5.7489501364        0.0998923502        1.7449619436
