85
 energy: -125.675110199029 gnorm: 0.000023835628 xtb: 6.7.1 (edcfbbe)
C            1.64589827829607        3.68709769589978       -1.95577953791953
C            2.45900482516692        3.31773590310471       -0.70708754927192
C            3.94364586582338        3.49876212302396       -1.03530838278006
C            2.10468813252144        4.26932032092696        0.44462194213954
C            2.11403115078940        1.89433683052517       -0.29649493414382
C            3.06468787387624        0.88790238255105       -0.23689634379029
C            2.70685040271840       -0.41741398129736        0.10843336127678
C            1.36906262390235       -0.73295887564313        0.40276406219497
C            0.42720712489965        0.31055345349058        0.40248150973248
C            0.79470325515285        1.59670067468293        0.03064134284431
N           -0.89116772144581        0.02097365682064        0.73378755390618
C           -1.70208737981490        0.97906390186077        1.35153824999466
C           -1.15314000645530        1.92912477376370        2.21265768669550
C           -1.96009574897874        2.86376345870802        2.82875024405632
C           -3.32807092156281        2.85427504576261        2.61110764987815
C           -3.88435509812438        1.88325713220916        1.79880752047718
C           -3.08571039559100        0.93593900402888        1.17695634338994
C           -3.66691886911642       -0.13281882227340        0.28442550235798
C           -5.11957574925187       -0.40927273842761        0.58754599411061
C           -5.67171404243936       -0.89184715601142        1.75537787215241
C           -7.04703158203391       -1.07039612746268        1.81514892517357
C           -7.84987121473137       -0.76963951938863        0.72474923531466
C           -7.29988605521189       -0.28400163565483       -0.45069588416389
C           -5.92785513608162       -0.10420339965768       -0.51610481170780
C           -5.07622093966079        0.37870579107601       -1.59145387791838
C           -5.38757907315178        0.80591270046788       -2.87127710386047
C           -4.35873953881786        1.22090498387966       -3.70124360497677
C           -3.04435717354152        1.20687472149651       -3.26163850618866
C           -2.72517011814295        0.77872173084763       -1.97962593500672
C           -3.74547886954061        0.36768590689638       -1.14963676143162
C           -2.80538519207568       -1.37576622066132        0.35826352303449
C           -3.35584361443254       -2.62510859930135        0.14327849515122
C           -2.54874476835144       -3.75222440350254        0.10028580976446
C           -1.18876139536019       -3.62644234213182        0.27753564536071
C           -0.58551566611517       -2.38881476794924        0.52019961557178
C           -1.42223057863321       -1.25263164761522        0.54275494695042
B            0.93820658082582       -2.16335164750086        0.65521226270178
C            2.09709825858659       -3.14766883228492        0.88785571709050
C            1.95262201984783       -4.44429107522860        1.39684336841133
C            3.01936122278503       -5.29845585908713        1.55863095453161
C            4.29290293189624       -4.86830616893949        1.20545783134278
C            4.48706047829741       -3.59106305506745        0.73331804680123
C            3.40768509228576       -2.70758962283723        0.58708846393823
N            3.65714234859106       -1.41784352285875        0.15140382845109
C            4.98595124274742       -1.07999480496822       -0.24172994289310
C            5.38355180970390       -1.27157604297002       -1.55808123580340
C            6.66762466940160       -0.93044437794732       -1.94539791192031
C            7.55370463477610       -0.39775912059306       -1.02404968676981
C            7.15655343386767       -0.20655211798698        0.28930850112526
C            5.87487855435202       -0.54623801869994        0.68352660265627
H            0.57775447340699        3.64199607437261       -1.76216681995786
H            1.87516539744803        3.00098819324124       -2.76868688570152
H            1.89063220859032        4.69745381552820       -2.27700708829137
H            4.12633666917551        4.53153694691357       -1.32574334126346
H            4.56689673394078        3.27801308843718       -0.17160294929366
H            4.24378948322993        2.85914680145935       -1.86234549800741
H            2.66036013312932        3.99764111678219        1.34005053534452
H            1.04381464045303        4.23415821334926        0.67698132997511
H            2.36063551737291        5.29256653305092        0.17757635357736
H            4.09391978342721        1.10257940890849       -0.46505180121784
H            0.03720857262126        2.36345880031506       -0.01955367436490
H           -0.09006618347079        1.92389352201569        2.40062212413057
H           -1.51900732217390        3.59802863454910        3.48646579094404
H           -3.96024050783390        3.59216369851675        3.08098618040692
H           -4.95226583656318        1.86070284232556        1.64031704030686
H           -5.04567968632396       -1.12638343929910        2.60422167063542
H           -7.49743690483783       -1.44820802531312        2.72134272334071
H           -8.91800523370469       -0.91669960550883        0.79399495573500
H           -7.92880591935438       -0.05143823322646       -1.29725572902219
H           -6.41102907980968        0.81613479526210       -3.21598964077831
H           -4.58251365503139        1.55853943348749       -4.70287628141349
H           -2.25581180908615        1.53279099506602       -3.92422498974543
H           -1.69621453448603        0.76923238568175       -1.65328142984058
H           -4.41918723773167       -2.71781305347943       -0.02159228506797
H           -2.99024026614351       -4.71963724088879       -0.08912466321286
H           -0.56202118736887       -4.50166651720007        0.20176257384043
H            0.96609496490014       -4.77066272722417        1.68979927581858
H            2.87325056743500       -6.29279047095609        1.95431812896103
H            5.13970460161927       -5.53055972717360        1.31453974515290
H            5.48755619012516       -3.26672860283598        0.48788011866113
H            4.68265357987801       -1.68676277118275       -2.26705021492570
H            6.97636187013149       -1.08007468475968       -2.96926211321086
H            8.55452440943740       -0.13138394049193       -1.32908401318885
H            7.84686328145163        0.20835499557848        1.00864247318368
H            5.55239032368368       -0.40151194332461        1.70413980057881
