91
 energy: -144.910144336654 gnorm: 0.000051017019 xtb: 6.7.1 (edcfbbe)
N           -9.53357908580731       -6.99241617800500        0.11397681639758
C           -8.58461332090515       -6.34116019496855        0.11586350434465
C           -7.42408632150257       -5.54815526178101        0.11814876092575
C           -6.26357823755964       -5.99412519950626       -0.52745839808565
C           -5.12896830167898       -5.21649859140001       -0.51683976211880
C           -5.10933123072229       -3.97132220516423        0.12502192740193
C           -3.89859063247077       -3.15303289893997        0.12829491721071
C           -2.63474820086648       -3.74916860513699        0.21670818576980
C           -1.50531124447649       -2.97022927748339        0.21304671456561
C           -1.59775975603116       -1.57452641483780        0.11634598091441
C           -2.86102424225075       -0.93903044893210        0.04374954500164
C           -3.98481326459812       -1.76014635476531        0.04512907592705
C           -2.94521957610389        0.52152386887041       -0.02238037398794
C           -4.16258496760906        1.17282045076039       -0.01333042044034
C           -4.30014537586523        2.57405512482104       -0.04160467376222
C           -5.60027595250421        3.19827725749544       -0.03446435935025
C           -5.78922738574286        4.49353787441916        0.49219169349181
C           -7.02292191751590        5.08948447553285        0.50997707017160
C           -8.14269179195315        4.42035461879876       -0.01495356223806
C           -9.40330050988674        5.02627221735600       -0.00332521609462
N          -10.44217195768500        5.52836987302409        0.00676585754681
C           -7.97219234715189        3.13239233264234       -0.55229200254943
C           -6.73577032664739        2.54171404264833       -0.55490397275242
C           -3.11112948567740        3.33769561951695       -0.06671176520522
C           -1.89059978426558        2.73614602567039       -0.09013687142611
C           -1.74885956729156        1.32237763848655       -0.07578300471141
C           -0.52272876829374        0.65809398263690       -0.07693351619203
C           -0.43724793687876       -0.76379415227520        0.06836555796237
N            0.83651161077504       -1.15190200700140        0.13338605673840
C            1.58356389827762       -0.05802194945583        0.00592829611147
C            3.00240205224694       -0.12754770666709       -0.02373955772476
C            3.60508233248277       -1.32557862646783        0.43075601972583
C            4.96174167392609       -1.48457081857840        0.44022288555785
C            5.80814372982816       -0.45159024477627       -0.00842434916328
N            7.18064292096121       -0.59570254762846        0.01924301606164
C            7.76719534306866       -1.86080930081660       -0.13491673143468
C            8.87562035437521       -2.21846587596287        0.63380161771896
C            9.45629413422755       -3.46150172828716        0.47252809450706
C            8.94341695462141       -4.36058243130074       -0.45020039104484
C            7.84281330951364       -4.00790272785772       -1.21631232070568
C            7.25545375397079       -2.76670447193931       -1.06536727890852
C            8.01138523174282        0.51905031830748        0.19912612017805
C            9.21478559073852        0.61820404156428       -0.50133812207350
C           10.03492119147317        1.71417886639949       -0.31596810637060
C            9.67047732898175        2.72244476096696        0.56342895784539
C            8.47687115061610        2.62652313748582        1.26256931925499
C            7.65012090069052        1.53398065549989        1.08733105086627
C            5.21670098928842        0.72802900276945       -0.49483755913313
C            3.85638456518769        0.88617113231866       -0.50887848035577
N            0.78569826310305        1.08497665856608       -0.12452013752698
C            1.25523914556093        2.41292576916311       -0.19859066276501
C            1.89551252684483        2.97957685113567        0.89955520165479
C            2.37491031414297        4.27470097892210        0.81957153252614
C            2.21700802991881        5.00660976534557       -0.34659460033620
C            1.57613809571381        4.44234039847524       -1.43890181180199
C            1.09543977988094        3.14713926763207       -1.37156912649976
C           -6.27775948074133       -3.53562256279447        0.76357093064418
C           -7.41707688099791       -4.30697670003767        0.76717831067156
H           -6.27217743646482       -6.94879737078583       -1.03360821193604
H           -4.24729725384145       -5.56100328596098       -1.03603671278608
H           -2.55197641576787       -4.82109906834096        0.31389676097297
H           -0.52102160200425       -3.40721855314057        0.28072454096139
H           -4.96852617531794       -1.33079302628613       -0.05132352380595
H           -5.06792689489229        0.59453408421826        0.06342238716832
H           -4.95202676735430        5.01768219862349        0.92763164251736
H           -7.15112676004723        6.07648002805865        0.93228021864767
H           -8.82777105845370        2.61893750490283       -0.96876863973075
H           -6.62818682901647        1.56555870444406       -1.00354361683269
H           -3.16789527959795        4.41492130937853       -0.10188097526972
H           -1.00336634057252        3.34733072031079       -0.11157350525154
H            2.95618331741623       -2.10620459667419        0.79369295773113
H            5.39607305316927       -2.39568394273283        0.82287114156872
H            9.26673495204449       -1.52223160015162        1.36066865125002
H           10.30985205854937       -3.73282684087945        1.07544475916891
H            9.39970233010295       -5.33101666253311       -0.57243830067227
H            7.44411727886891       -4.70045932228899       -1.94235883453185
H            6.40872718868863       -2.48417393500914       -1.67325748009591
H            9.49275476826460       -0.16075625896147       -1.19550974417283
H           10.96075853476899        1.78531234271134       -0.86684496811004
H           10.31366591814286        3.57761543725153        0.70427865434694
H            8.19204819478721        3.40369560201920        1.95584559398140
H            6.72905280749648        1.45044038748433        1.64486441973792
H            5.84773572452715        1.50793874868544       -0.89396372366468
H            3.44353039320090        1.78435783975440       -0.93614212400656
H            2.01213708116586        2.39971483873246        1.80332761787276
H            2.86880476796789        4.71422797287437        1.67291514050417
H            2.59182963114903        6.01705901011524       -0.40523665809242
H            1.45151705451382        5.01017602422001       -2.34865657673242
H            0.59515986222214        2.69671925637363       -2.21672419378099
H           -6.27907814285211       -2.59174198851640        1.28823909071919
H           -8.31054905512287       -3.96672839809181        1.27111142919123
