  112
       -169.62001462
 C         -6.5096762551       -5.0467487521        1.2595654765
 C         -6.7358721779       -3.9545931016        2.0804937375
 C         -6.5383012926       -2.6707651692        1.6131439886
 C         -6.1095565893       -2.4517973406        0.3024387560
 N         -5.9027277212       -1.1625201007       -0.1825663173
 C         -4.9903363191       -0.9334826638       -1.2234183132
 C         -5.3406324820       -0.0969998140       -2.2815195184
 C         -4.4428602456        0.1479977279       -3.3018316169
 C         -3.1917131269       -0.4443763207       -3.2867668456
 C         -2.8417233423       -1.2851140491       -2.2417687912
 C         -3.7318817778       -1.5348920785       -1.2171795536
 C         -6.6299928686       -0.0745108434        0.3236068975
 C         -7.9930664583       -0.2027513004        0.5780778814
 C         -8.7241392001        0.8620717245        1.0690151557
 C         -8.1034685902        2.0786048699        1.3026139797
 C         -6.7532434075        2.2208138162        1.0407559478
 C         -5.9939548015        1.1596351854        0.5563022594
 C         -4.5541720951        1.3286259291        0.3045163247
 C         -4.1043171434        2.2163866016       -0.7046393645
 C         -5.0008446265        3.0031073156       -1.4487019008
 C         -4.5545255223        3.9073682321       -2.3901303071
 C         -3.1924049040        4.0730038007       -2.5960384906
 C         -2.2887674693        3.2925418666       -1.8989652624
 C         -2.7116918390        2.3113507055       -0.9916833778
 C         -1.7736563465        1.4762511708       -0.3053074019
 C         -0.3889896090        1.4916272124       -0.6977788119
 C         -0.0667962619        1.3030119754       -2.0565238235
 C          1.2250467753        1.1714149617       -2.4807187276
 C          2.3048265211        1.2753327686       -1.5749472325
 C          3.6449002409        1.1573115279       -1.9887770518
 C          4.6719748972        1.2410256742       -1.0907276834
 C          4.4247264520        1.4596269059        0.2832228445
 C          5.4616559941        1.4710883819        1.2450243299
 C          6.8253984220        1.0185996593        0.9383065000
 C          7.8927202640        1.8493532964        1.2754833149
 C          9.2041379411        1.4745369195        1.0620763529
 C          9.4757693683        0.2261516690        0.5248615357
 C          8.4372924791       -0.6230517306        0.2020880976
 C          7.1057153766       -0.2474669608        0.3876388449
 N          6.0997391362       -1.1562156759        0.0256593310
 C          6.2663560718       -1.9376773554       -1.1233657089
 C          6.8906703683       -1.4205271713       -2.2591769843
 C          7.0477613641       -2.2012987440       -3.3873403595
 C          6.5858095946       -3.5069048557       -3.4090818101
 C          5.9694308249       -4.0288194964       -2.2836100794
 C          5.8131338706       -3.2573326410       -1.1490633741
 C          4.9494165863       -1.3186630416        0.8049547422
 C          5.0139148302       -1.2242673252        2.1937056461
 C          3.8625237202       -1.3231788879        2.9510444878
 C          2.6367376131       -1.5330990339        2.3429713106
 C          2.5726243222       -1.6634434620        0.9653378323
 C          3.7152791507       -1.5585466631        0.1993914096
 C          5.1787620418        1.8744681597        2.5495384584
 C          3.8958345850        2.1633951059        2.9495099831
 C          2.8209186475        2.0284605868        2.0539208990
 C          1.4820333522        2.2472236474        2.4440454628
 C          0.4519726214        2.0695043979        1.5659837149
 C          0.6823669854        1.6658867414        0.2324535124
 C          2.0223651409        1.5393669421       -0.2110302757
 C          3.0901069761        1.6805317006        0.7083483194
 C         -2.2406163902        0.5888185786        0.7165407815
 C         -1.4019610983       -0.3539221042        1.3262808735
 C         -1.8621525928       -1.2034499905        2.3141483636
 C         -3.1819415845       -1.1264370124        2.7390248043
 C         -4.0473267343       -0.2529296463        2.1154175611
 C         -3.6237472070        0.5680904987        1.0561593055
 C         -5.8971650673       -3.5580549805       -0.5232499217
 C         -6.0909167051       -4.8381868714       -0.0441297864
 H         -6.6624104428       -6.0488276067        1.6302226064
 H         -7.0642041009       -4.1029382161        3.0989865326
 H         -6.7163256009       -1.8313088228        2.2675650220
 H         -6.3192661695        0.3602728243       -2.2930185346
 H         -4.7235259957        0.8025810791       -4.1135802787
 H         -2.4946877103       -0.2573426942       -4.0899676261
 H         -1.8633213156       -1.7420703320       -2.2199290498
 H         -3.4568326564       -2.1809634040       -0.3965315397
 H         -8.4754751460       -1.1488207399        0.3791050527
 H         -9.7801448358        0.7438041204        1.2603413114
 H         -8.6689604216        2.9134870727        1.6881116987
 H         -6.2593590935        3.1615872499        1.2376945061
 H         -6.0608880100        2.8996252889       -1.2735442535
 H         -5.2651812903        4.4975523112       -2.9499518084
 H         -2.8341619259        4.8097101428       -3.2998101306
 H         -1.2320450233        3.4493676535       -2.0531913424
 H         -0.8800210063        1.1749474539       -2.7561599942
 H          1.4382364516        0.9615585438       -3.5193617809
 H          3.8516207416        0.9963036282       -3.0377727857
 H          5.6939584272        1.1624925223       -1.4283583728
 H          7.6722272504        2.8234655931        1.6880052772
 H         10.0090924923        2.1471766730        1.3166944805
 H         10.4958031979       -0.0910949899        0.3680449900
 H          8.6489359798       -1.6048192237       -0.1964046873
 H          7.2575758269       -0.4048279574       -2.2538310917
 H          7.5304735596       -1.7838229634       -4.2589019678
 H          6.7089737560       -4.1134357394       -4.2933889083
 H          5.6147448203       -5.0491244928       -2.2852574914
 H          5.3429248696       -3.6730661797       -0.2700062906
 H          5.9699377905       -1.0671575855        2.6717557541
 H          3.9249978919       -1.2365698639        4.0257661872
 H          1.7383060145       -1.5951980043        2.9378692169
 H          1.6233865457       -1.8347446660        0.4787808737
 H          3.6562847688       -1.6345931594       -0.8761313142
 H          5.9859096965        1.9147213148        3.2677691468
 H          3.6958548844        2.4618550593        3.9683113210
 H          1.2831376600        2.5556498375        3.4605278371
 H         -0.5646593091        2.2410956431        1.8874603528
 H         -0.3697766128       -0.4178560308        1.0188112779
 H         -1.1884243619       -1.9184705584        2.7629385763
 H         -3.5353902347       -1.7577608851        3.5407471015
 H         -5.0732632026       -0.1894950096        2.4434736745
 H         -5.5858822546       -3.4059411123       -1.5461640760
 H         -5.9223521401       -5.6803938807       -0.6992932665
