  81
       -144.23413701
 F         -9.7828737419       -0.7099570504        0.7562390933
 C         -9.0816129350       -0.3938083723       -0.3504417199
 F         -9.0873555764       -1.4865828414       -1.1241463838
 F         -9.8166028151        0.5318366885       -0.9964944968
 C         -7.7027454781        0.1043925359       -0.0225798526
 C         -7.6008085871        1.2837716001        0.7412308484
 C         -6.3723261032        1.7871776784        1.0674883266
 C         -5.2074218287        1.1237767259        0.6388405525
 N         -3.9931823814        1.6595803275        0.9001189715
 C         -2.9408798128        1.0057992729        0.4995876434
 C         -1.5812493302        1.5546431510        0.6346113579
 C         -0.9537335004        1.6873355169        1.8667135899
 C          0.4006257200        1.9611659312        1.9306080667
 C          1.1419282675        2.1236287255        0.7637443725
 N          2.5448735367        2.2542906015        0.8138053093
 C          3.1749720496        3.3310172889        0.1830870976
 C          2.4700350282        4.4588983226       -0.2176497742
 C          3.1179081860        5.5199318462       -0.8316561587
 C          4.4810284385        5.4746939262       -1.0445536956
 C          5.2038742556        4.3704597750       -0.6179851422
 C          4.5630983148        3.3121060627       -0.0006860800
 O          5.3478077561        2.2738200806        0.4302929389
 C          4.7184627541        1.2117726405        1.0259163657
 C          5.5199894375        0.1567690412        1.4217509928
 C          4.9616755613       -0.9730783733        1.9986453731
 C          3.5941191360       -1.0398007586        2.1668210765
 C          2.7877682772        0.0206063930        1.7812122291
 C          3.3317394066        1.1666418023        1.2174899446
 C          0.4854046719        2.1132607486       -0.4653193061
 C         -0.8570820239        1.8131043304       -0.5280754997
 C         -3.0550886945       -0.2868986251       -0.1316414542
 C         -1.8019137919       -1.0261349450       -0.3581764186
 C         -1.0461864461       -1.3951548946        0.7531982634
 C          0.2279486431       -1.8945987121        0.5997109541
 C          0.7879642513       -2.0010204269       -0.6716442401
 N          2.1471501384       -2.3452403610       -0.8195285275
 C          3.0587696018       -1.3880186116       -1.2865448055
 C          2.6561334439       -0.1659888241       -1.8079138664
 C          3.5838761825        0.7599742419       -2.2608280657
 C          4.9335447970        0.4805703115       -2.2030260346
 C          5.3539278988       -0.7267292383       -1.6676604624
 C          4.4324639655       -1.6482000091       -1.2049492731
 O          4.9347163247       -2.7994766590       -0.6560305980
 C          4.0356888079       -3.6972153516       -0.1407035584
 C          4.5526645635       -4.8347293913        0.4512857719
 C          3.7045640398       -5.8093840667        0.9558499557
 C          2.3384162274       -5.6465490417        0.8448623017
 C          1.8151319768       -4.5047045292        0.2575456014
 C          2.6510496280       -3.5023396627       -0.2180677146
 C          0.0012122767       -1.7216211621       -1.7854931846
 C         -1.2880668574       -1.2455977231       -1.6298376940
 N         -4.2151357510       -0.7826297420       -0.4529995787
 C         -5.3180276804       -0.0812686562       -0.1061218291
 C         -6.5896979569       -0.5766555929       -0.4445321689
 H         -8.5047879957        1.7820025147        1.0574256541
 H         -6.2647695858        2.6933925805        1.6418980520
 H         -1.5211499635        1.5383743217        2.7730705516
 H          0.8959186934        2.0306235326        2.8876087249
 H          1.4066995681        4.5102549525       -0.0409410980
 H          2.5453352165        6.3821010138       -1.1371517985
 H          4.9892908482        6.2945038703       -1.5269428506
 H          6.2724182143        4.3133278994       -0.7504251147
 H          6.5823909698        0.2363929812        1.2575563800
 H          5.5933456612       -1.7942007942        2.2977392881
 H          3.1433076980       -1.9206945328        2.6001758869
 H          1.7197314124       -0.0480660332        1.9084700956
 H          1.0428605883        2.3081182832       -1.3683916644
 H         -1.3515703547        1.7609088963       -1.4871696583
 H         -1.4591417467       -1.2726017719        1.7439174512
 H          0.8109176034       -2.1744531055        1.4633482583
 H          1.6049195207        0.0686565064       -1.8492317531
 H          3.2419266800        1.7040548819       -2.6593694447
 H          5.6590807629        1.1961535238       -2.5554817009
 H          6.4007032699       -0.9716245670       -1.5887242812
 H          5.6243519008       -4.9420618030        0.5013410222
 H          4.1169702941       -6.6922418480        1.4178309000
 H          1.6659502294       -6.4072739860        1.2103494369
 H          0.7460610146       -4.3946181535        0.1606177188
 H          0.4129843441       -1.8607717628       -2.7739267443
 H         -1.8880549706       -1.0088104051       -2.4955706911
 H         -6.6573902220       -1.4867757333       -1.0193757112
