  81
  -143.765485277700       0.379604682355419      !
 F         -9.3266568935        0.5553854819        0.9749928658
 C         -8.6560834302        0.5242526619       -0.1946130404
 F         -8.8166758452       -0.7115594442       -0.6854190290
 F         -9.3268242423        1.3496881611       -1.0207934294
 C         -7.2180587603        0.9255281584       -0.0321855068
 C         -6.9523312309        2.2565204485        0.3487318058
 C         -5.6637122746        2.6815569605        0.5114016957
 C         -4.5998364709        1.7842523497        0.2967405514
 N         -3.3259425894        2.2157419606        0.3598884776
 C         -2.3562731852        1.3546318854        0.1706152157
 C         -0.9930797458        1.8848409094        0.1158225446
 C         -0.6221517796        2.9084322451        0.9866077434
 C          0.6694273863        3.3915094959        0.9917749756
 C          1.6130903679        2.8719157157        0.1082112006
 N          2.9419268439        3.3336553320        0.1277454681
 C          3.2393374215        4.6753301974       -0.1300676604
 C          2.2619533889        5.5997830668       -0.4761357172
 C          2.5931501857        6.9226034665       -0.7271478785
 C          3.9060377702        7.3407633740       -0.6479489784
 C          4.8980617352        6.4221944635       -0.3388728751
 C          4.5736699226        5.1011531706       -0.0915974584
 O          5.6138062787        4.2439583799        0.1681596550
 C          5.3040802300        2.9358713797        0.4424344127
 C          6.3574523479        2.0926906444        0.7445269918
 C          6.1208218190        0.7660317550        1.0725436176
 C          4.8238645293        0.2967840139        1.1158697906
 C          3.7646886933        1.1361704443        0.8051640140
 C          3.9866635054        2.4584539005        0.4409014768
 C          1.2321038887        1.8843701537       -0.7991078333
 C         -0.0563854610        1.3954975464       -0.7958053619
 C         -2.6416337143       -0.0468369529        0.0121306518
 C         -1.5902628122       -1.0652639222        0.0281184909
 C         -0.5011958875       -0.9767590456        0.8963976148
 C          0.4970034632       -1.9263911524        0.8592233317
 C          0.4272357659       -2.9857823759       -0.0438860004
 N          1.4731865999       -3.9252308664       -0.1078448472
 C          2.7530667460       -3.5270207684       -0.5047822224
 C          3.0399392689       -2.2232659121       -0.8895697719
 C          4.3195864939       -1.8641937492       -1.2856744853
 C          5.3311525283       -2.8026034803       -1.3085576282
 C          5.0540438948       -4.1157369961       -0.9580619080
 C          3.7781873495       -4.4804010687       -0.5695160482
 O          3.5725446063       -5.8044950886       -0.2743357546
 C          2.3004452724       -6.1873253985        0.0718156897
 C          2.1012064394       -7.5282933867        0.3424760540
 C          0.8516743929       -7.9851738437        0.7346708945
 C         -0.1883974477       -7.0883984503        0.8714515342
 C          0.0051325919       -5.7429097814        0.5976934397
 C          1.2416082805       -5.2751679260        0.1714855830
 C         -0.6808648153       -3.1022799940       -0.8800375731
 C         -1.6820191586       -2.1549765351       -0.8366129248
 N         -3.8747265435       -0.4615178333       -0.1441655810
 C         -4.8766404974        0.4326239244       -0.0475604797
 C         -6.2088798692        0.0180883272       -0.2280141793
 H         -7.7809457218        2.9315057364        0.5003694335
 H         -5.4323940552        3.6977295436        0.7881105100
 H         -1.3570662669        3.2972257000        1.6743077225
 H          0.9617547342        4.1631122325        1.6883521284
 H          1.2341388152        5.2834760552       -0.5607299711
 H          1.8122840332        7.6201481167       -0.9883373555
 H          4.1678399289        8.3699302303       -0.8356236340
 H          5.9359370311        6.7102469285       -0.2908731061
 H          7.3564010097        2.4979165724        0.7240163633
 H          6.9480679333        0.1140065625        1.3031756174
 H          4.6235542300       -0.7279051057        1.3876463939
 H          2.7551910085        0.7587345738        0.8532248323
 H          1.9561812837        1.5085543689       -1.5068274626
 H         -0.3458333131        0.6469336457       -1.5182496290
 H         -0.4485507304       -0.1744605181        1.6171481163
 H          1.3394552796       -1.8591575651        1.5316198215
 H          2.2562970936       -1.4817788533       -0.8864709103
 H          4.5166920066       -0.8428272488       -1.5719581114
 H          6.3294830475       -2.5259440165       -1.6076711972
 H          5.8156905350       -4.8783652809       -0.9864268964
 H          2.9401002107       -8.1986956852        0.2461925543
 H          0.7045687696       -9.0333214750        0.9410229384
 H         -1.1607809223       -7.4248954185        1.1961332554
 H         -0.8117048974       -5.0502558502        0.7264223926
 H         -0.7408428461       -3.9303772651       -1.5704964302
 H         -2.5379161842       -2.2294352329       -1.4892902127
 H         -6.4045342496       -1.0060937056       -0.5040277694
  81
  -143.765204416700       0.282004982785737      !
 F         -9.3488848601        0.5570420230        1.0005426368
 C         -8.6840357262        0.5245973110       -0.1724995856
 F         -8.8440826490       -0.7129594466       -0.6592902771
 F         -9.3607066838        1.3462198392       -0.9974745998
 C         -7.2459715206        0.9291058686       -0.0181732927
 C         -6.9797634177        2.2625921425        0.3536248645
 C         -5.6908075882        2.6894888496        0.5091136094
 C         -4.6270117985        1.7914701863        0.2967662942
 N         -3.3529527936        2.2238365641        0.3545185072
 C         -2.3838420683        1.3616123209        0.1687668672
 C         -1.0187465461        1.8872355710        0.1114695999
 C         -0.6421776412        2.9125889978        0.9775265016
 C          0.6545004984        3.3829842819        0.9863737573
 C          1.5974578883        2.8458814607        0.1131463994
 N          2.9349475778        3.2831189539        0.1415195529
 C          3.2679558424        4.6081170125       -0.1538233142
 C          2.3137806479        5.5530820929       -0.5086681704
 C          2.6816017002        6.8579579689       -0.8000622192
 C          4.0078505609        7.2366871496       -0.7521242175
 C          4.9759752331        6.2966867332       -0.4311076917
 C          4.6152345035        4.9935354245       -0.1431921396
 O          5.6325360889        4.1123707657        0.1277490678
 C          5.2865670488        2.8251016465        0.4529064529
 C          6.3156617734        1.9606649173        0.7776499012
 C          6.0403169565        0.6547413561        1.1551848134
 C          4.7298553884        0.2278844851        1.2245970052
 C          3.6946604698        1.0881311716        0.8911113764
 C          3.9553541884        2.3886897182        0.4779583160
 C          1.2106675500        1.8590238978       -0.7921782836
 C         -0.0832563272        1.3852955817       -0.7946994327
 C         -2.6696233390       -0.0407881978        0.0173300937
 C         -1.6150326177       -1.0562172844        0.0318936488
 C         -0.5323594373       -0.9689878854        0.9083314480
 C          0.4753994658       -1.9078635046        0.8636200503
 C          0.4226745409       -2.9539935094       -0.0562236493
 N          1.4849226107       -3.8741027077       -0.1313722596
 C          2.7605933639       -3.4404421938       -0.5042824450
 C          3.0153696590       -2.1307746249       -0.8919732541
 C          4.2913436293       -1.7350894044       -1.2637354729
 C          5.3312169822       -2.6420806281       -1.2584019845
 C          5.0868381162       -3.9613109856       -0.9062419980
 C          3.8145640898       -4.3629210105       -0.5432600144
 O          3.6413840019       -5.6911572444       -0.2461219601
 C          2.3717992553       -6.1114406547        0.0643771499
 C          2.2050335202       -7.4582906274        0.3269896162
 C          0.9593989383       -7.9530763187        0.6836172230
 C         -0.1103419699       -7.0880209877        0.7924700978
 C          0.0507264968       -5.7365881892        0.5274150807
 C          1.2842498431       -5.2309248701        0.1377578903
 C         -0.6800947592       -3.0712559978       -0.8991439475
 C         -1.6919649921       -2.1353692736       -0.8471177428
 N         -3.9025404812       -0.4568263677       -0.1340740598
 C         -4.9043568406        0.4377422858       -0.0386339713
 C         -6.2368589591        0.0212090038       -0.2119654666
 H         -7.8083710116        2.9380010558        0.5042573373
 H         -5.4593139302        3.7074507322        0.7796025025
 H         -1.3764848301        3.3123333028        1.6596207042
 H          0.9513436202        4.1557423377        1.6797269786
 H          1.2755988401        5.2663950353       -0.5687975901
 H          1.9186544041        7.5723940779       -1.0682976400
 H          4.2984728797        8.2513682025       -0.9732045540
 H          6.0227671528        6.5537763416       -0.4058181421
 H          7.3267557756        2.3326956533        0.7345328445
 H          6.8486464794       -0.0143982069        1.4031044043
 H          4.5008875193       -0.7794619778        1.5353226910
 H          2.6738636648        0.7450386141        0.9571518110
 H          1.9357483334        1.4700931852       -1.4916967595
 H         -0.3773379594        0.6379089902       -1.5163479779
 H         -0.4917095387       -0.1751880709        1.6393083434
 H          1.3144065144       -1.8409007539        1.5403749627
 H          2.2093819101       -1.4138154570       -0.9083914354
 H          4.4636823778       -0.7103132963       -1.5537872305
 H          6.3268829243       -2.3360550706       -1.5367799662
 H          5.8719684820       -4.7002545181       -0.9130020004
 H          3.0660213258       -8.1030309863        0.2528896490
 H          0.8380782713       -9.0056913345        0.8836509738
 H         -1.0814116677       -7.4541445395        1.0880270282
 H         -0.7895815417       -5.0689669111        0.6352690500
 H         -0.7268020014       -3.8885810879       -1.6032983380
 H         -2.5434589593       -2.2093616786       -1.5056971924
 H         -6.4326436969       -1.0047822171       -0.4816995584
  81
  -143.765063231600       0.242869289601547      !
 F         -9.4080266569        0.6064560831        1.0049127387
 C         -8.7344569372        0.5279913169       -0.1602503142
 F         -8.8966378539       -0.7251726252       -0.6033481363
 F         -9.4009785250        1.3227713166       -1.0195290733
 C         -7.2958563836        0.9323403446       -0.0102661067
 C         -7.0299613293        2.2697394105        0.3470266050
 C         -5.7409143729        2.6994096493        0.4934371172
 C         -4.6770719848        1.8005569697        0.2856913603
 N         -3.4034176093        2.2361687036        0.3310203659
 C         -2.4346371042        1.3733148934        0.1506768243
 C         -1.0675246193        1.8927090909        0.0842475503
 C         -0.6779202536        2.9145805625        0.9484097190
 C          0.6288672134        3.3571245981        0.9679663932
 C          1.5679747666        2.7928531225        0.1084320636
 N          2.9204644690        3.1802496841        0.1600439384
 C          3.3172273082        4.4816018821       -0.1574828521
 C          2.4092507490        5.4680268945       -0.5197500081
 C          2.8407553348        6.7479087354       -0.8340809970
 C          4.1848021512        7.0591703578       -0.8008186671
 C          5.1064549119        6.0767145517       -0.4698682978
 C          4.6824327930        4.7982231153       -0.1591397541
 O          5.6556391522        3.8706687489        0.1208103367
 C          5.2463692437        2.6115563979        0.4815233602
 C          6.2298819179        1.7034871239        0.8278167281
 C          5.8878816949        0.4240918026        1.2402556535
 C          4.5574670710        0.0678085204        1.3230747851
 C          3.5675403343        0.9717560954        0.9690889718
 C          3.8949654242        2.2448334628        0.5198900316
 C          1.1662264845        1.8187083721       -0.8041439957
 C         -0.1375672218        1.3743019495       -0.8186428916
 C         -2.7188322817       -0.0322290018        0.0206870436
 C         -1.6556129657       -1.0389354851        0.0415641825
 C         -0.5714150721       -0.9296314115        0.9139577122
 C          0.4590193274       -1.8425105379        0.8592251057
 C          0.4270019484       -2.8853969395       -0.0650068559
 N          1.5197992342       -3.7683848836       -0.1561781352
 C          2.7714950748       -3.2865818234       -0.5498072451
 C          2.9597219641       -1.9786567712       -0.9782951187
 C          4.2136348756       -1.5326846006       -1.3674098930
 C          5.2961414249       -2.3877666707       -1.3409978810
 C          5.1178576258       -3.7062731804       -0.9488510669
 C          3.8681793212       -4.1582002184       -0.5671805340
 O          3.7589721587       -5.4834357440       -0.2284490791
 C          2.5094673379       -5.9560364012        0.0897494935
 C          2.4048135397       -7.3031451238        0.3817308455
 C          1.1825772828       -7.8474036619        0.7479187983
 C          0.0731198113       -7.0313602947        0.8351551273
 C          0.1714787948       -5.6799490956        0.5400582875
 C          1.3815487962       -5.1261014821        0.1429600866
 C         -0.6808732598       -3.0321734872       -0.8958331208
 C         -1.7150012681       -2.1206250666       -0.8352451433
 N         -3.9511372634       -0.4524071524       -0.1196365361
 C         -4.9538497446        0.4424940433       -0.0322521925
 C         -6.2865317563        0.0230867046       -0.1970508553
 H         -7.8587838279        2.9456819800        0.4938647536
 H         -5.5093438974        3.7202573960        0.7522208781
 H         -1.4092050231        3.3301889029        1.6242821485
 H          0.9365112624        4.1238686774        1.6632828793
 H          1.3576545898        5.2326693143       -0.5684652997
 H          2.1133456422        7.4961180222       -1.1086160477
 H          4.5249929468        8.0540204271       -1.0404217008
 H          6.1649870349        6.2811408041       -0.4550201573
 H          7.2589880908        2.0205431057        0.7733808809
 H          6.6609357869       -0.2796079700        1.5040942504
 H          4.2785403179       -0.9177153078        1.6618622961
 H          2.5299914200        0.6857119379        1.0438395266
 H          1.8899590450        1.4127012522       -1.4952468148
 H         -0.4425836803        0.6339838670       -1.5430911288
 H         -0.5461005134       -0.1372222935        1.6471429168
 H          1.3023926028       -1.7557034598        1.5280957628
 H          2.1185174125       -1.3039710143       -1.0096292161
 H          4.3359298326       -0.5103362591       -1.6894680902
 H          6.2747548707       -2.0421788765       -1.6331159236
 H          5.9384051287       -4.4056379408       -0.9377923959
 H          3.2952074377       -7.9084486574        0.3244916555
 H          1.1104650749       -8.8994587869        0.9734407594
 H         -0.8801682052       -7.4358269748        1.1383973869
 H         -0.6991389147       -5.0496416417        0.6309088814
 H         -0.7129578198       -3.8496030373       -1.6006447943
 H         -2.5686137141       -2.2139967263       -1.4886129621
 H         -6.4824180457       -1.0059987327       -0.4541777552
  81
  -143.763606089300       5.196565037324240E-002 !
 F         -9.5962360981        0.8123065291        0.7417615443
 C         -8.8520128359        0.6286863816       -0.3661384010
 F         -9.0339568177       -0.6458360613       -0.7349303130
 F         -9.4276329846        1.3846547982       -1.3219161828
 C         -7.4110583198        0.9931136035       -0.1495058209
 C         -7.1298192411        2.3068749896        0.2772622655
 C         -5.8373641554        2.7047785137        0.4738064101
 C         -4.7840712479        1.7981103646        0.2452384262
 N         -3.5046155454        2.2104410164        0.3427144853
 C         -2.5503137738        1.3396830977        0.1336257839
 C         -1.1624571487        1.8049217542        0.1149836378
 C         -0.7049841175        2.7002709970        1.0791161567
 C          0.6286178725        3.0526226570        1.1311576854
 C          1.5259415993        2.5339157293        0.2000315846
 N          2.8990523353        2.8262417684        0.2733160568
 C          3.3715891380        4.1369152224        0.1551982828
 C          2.5230220597        5.2201687382       -0.0349109926
 C          3.0278398661        6.5067362272       -0.1473760693
 C          4.3881137234        6.7311108194       -0.0837166056
 C          5.2509525509        5.6562007061        0.0687610280
 C          4.7531658472        4.3707854986        0.1774842126
 O          5.6720555330        3.3569998726        0.2836720205
 C          5.1933386406        2.0786075271        0.4195475539
 C          6.1287466379        1.0707477879        0.5665337578
 C          5.7209092800       -0.2406788061        0.7566490939
 C          4.3736580582       -0.5303947254        0.8203038413
 C          3.4317703646        0.4734605064        0.6598887286
 C          3.8233380763        1.7869147750        0.4313092258
 C          1.0558281570        1.6958529680       -0.8105754347
 C         -0.2710467933        1.3316588987       -0.8496264310
 C         -2.8576629536       -0.0510809798       -0.0797477902
 C         -1.7826647512       -1.0510744192       -0.0776559663
 C         -0.8194805163       -1.0327822159        0.9303402738
 C          0.2552363470       -1.8952151920        0.8800708731
 C          0.3898918352       -2.7736078979       -0.1899159731
 N          1.5547309780       -3.5741267547       -0.3006474238
 C          2.6518310486       -3.0747250405       -1.0035538180
 C          2.5756850124       -1.9093222544       -1.7537483938
 C          3.6874870333       -1.4316808688       -2.4310611195
 C          4.8869398486       -2.1092428143       -2.3655741643
 C          4.9771598483       -3.2761357509       -1.6197879215
 C          3.8726331884       -3.7596233175       -0.9449839652
 O          4.0318957307       -4.9169102083       -0.2211371577
 C          2.9665744664       -5.3409724647        0.5377027828
 C          3.1542249635       -6.4579983962        1.3286867430
 C          2.1160076664       -6.9416053791        2.1134297349
 C          0.8934798863       -6.3016492252        2.1017876973
 C          0.6993013535       -5.1782419915        1.3115942799
 C          1.7296558432       -4.6833918765        0.5244624460
 C         -0.5970694315       -2.8372579316       -1.1653517567
 C         -1.6867083172       -1.9892123713       -1.1008745404
 N         -4.0889125737       -0.4469040019       -0.2617494020
 C         -5.0779442176        0.4630967604       -0.1467206704
 C         -6.4131946396        0.0763673682       -0.3596811639
 H         -7.9499149750        2.9901196275        0.4391443560
 H         -5.5937647402        3.7074272942        0.7870864005
 H         -1.4021876386        3.0841707881        1.8078946730
 H          0.9881231023        3.7113687877        1.9075659985
 H          1.4592067692        5.0583480098       -0.1086021976
 H          2.3445059513        7.3296916413       -0.2891369401
 H          4.7853094907        7.7303796727       -0.1645459341
 H          6.3200361774        5.7929607280        0.0978842281
 H          7.1732408994        1.3365666176        0.5369617477
 H          6.4553986737       -1.0221290070        0.8663945606
 H          4.0438014065       -1.5422463443        0.9944861274
 H          2.3817574084        0.2321882352        0.7167806467
 H          1.7467197587        1.3283262160       -1.5544097429
 H         -0.6270028345        0.6922552997       -1.6436106812
 H         -0.9139480362       -0.3383330769        1.7521760063
 H          1.0078985053       -1.8809368119        1.6546739845
 H          1.6406780259       -1.3726999526       -1.8016546143
 H          3.6068195386       -0.5233303924       -3.0083192799
 H          5.7554991463       -1.7387177443       -2.8860378898
 H          5.9017600927       -3.8260122120       -1.5479611399
 H          4.1194474093       -6.9383943760        1.3170769293
 H          2.2718470885       -7.8158522297        2.7253630001
 H          0.0781373193       -6.6705102996        2.7047730800
 H         -0.2594360543       -4.6823251741        1.2996779001
 H         -0.4949104476       -3.5411958568       -1.9775915918
 H         -2.4548752879       -2.0218444500       -1.8582277509
 H         -6.6200614929       -0.9351597938       -0.6721857927
  81
  -143.763097257100       3.033006064882852E-002 !
 F         -9.6203900347        0.7862742638        0.6730318102
 C         -8.8794334491        0.6538522107       -0.4448922366
 F         -9.0599980450       -0.6032613139       -0.8691688839
 F         -9.4603870551        1.4502037448       -1.3637557173
 C         -7.4388770074        1.0113353379       -0.2149542458
 C         -7.1568788952        2.3193012254        0.2281232530
 C         -5.8647995538        2.7089416587        0.4436542107
 C         -4.8134417731        1.7991420317        0.2204260343
 N         -3.5330201325        2.2050144282        0.3377838635
 C         -2.5818928525        1.3299871568        0.1368652681
 C         -1.1889577682        1.7814518200        0.1333840742
 C         -0.7195292631        2.6454899385        1.1194806430
 C          0.6196221566        2.9754692026        1.1816088104
 C          1.5098970790        2.4677185659        0.2378338077
 N          2.8871349171        2.7375873069        0.3172661693
 C          3.3797839900        4.0438653935        0.2392073027
 C          2.5478385867        5.1473215428        0.0979691807
 C          3.0728791037        6.4288839228        0.0288455393
 C          4.4371436411        6.6287530146        0.0872321354
 C          5.2833858242        5.5347238735        0.1889910393
 C          4.7652356661        4.2545309536        0.2541180564
 O          5.6684453954        3.2223685522        0.3093533249
 C          5.1704753308        1.9489961609        0.4155070621
 C          6.0907973252        0.9223572692        0.5231013220
 C          5.6636292968       -0.3867763448        0.6842236490
 C          4.3125053054       -0.6556054565        0.7580025803
 C          3.3852468166        0.3668132950        0.6337520696
 C          3.7959856671        1.6793969324        0.4352264572
 C          1.0285239285        1.6613737129       -0.7931676882
 C         -0.3033429091        1.3176764090       -0.8410664163
 C         -2.8933334670       -0.0586148228       -0.0885704448
 C         -1.8148092324       -1.0541315636       -0.0717502659
 C         -0.8839497782       -1.0445855422        0.9666572946
 C          0.2091405549       -1.8835431385        0.9306751709
 C          0.3994439274       -2.7281100268       -0.1590484963
 N          1.5833500901       -3.4937852981       -0.2627652101
 C          2.6052940828       -3.0560947918       -1.1087431041
 C          2.4570544254       -1.9519060945       -1.9371749896
 C          3.4984531889       -1.5325097598       -2.7508309855
 C          4.7025481819       -2.2054342829       -2.7445239806
 C          4.8700169294       -3.3026305343       -1.9123286961
 C          3.8358853494       -3.7258940625       -1.0992207982
 O          4.0796652931       -4.8047122449       -0.2845649711
 C          3.1019964930       -5.1498461061        0.6172895157
 C          3.3886400538       -6.1731765700        1.5005673830
 C          2.4389438098       -6.5861530729        2.4245195034
 C          1.2025666955       -5.9737824247        2.4537207122
 C          0.9102613950       -4.9438641300        1.5720411642
 C          1.8558632007       -4.5105420083        0.6525489904
 C         -0.5586532205       -2.7866903837       -1.1651239135
 C         -1.6688163296       -1.9656610475       -1.1130130815
 N         -4.1230817731       -0.4466256265       -0.2941907698
 C         -5.1084289140        0.4690454054       -0.1873912536
 C         -6.4427167790        0.0916595605       -0.4217668142
 H         -7.9755426723        3.0049872479        0.3868010256
 H         -5.6200958100        3.7073434444        0.7693062078
 H         -1.4113262935        3.0221681103        1.8571845566
 H          0.9880940253        3.6073690505        1.9759073559
 H          1.4808469035        5.0062320859        0.0287729542
 H          2.4018495164        7.2674758857       -0.0748985865
 H          4.8501318176        7.6237965045        0.0402432601
 H          6.3548800256        5.6527033454        0.2106195313
 H          7.1391251922        1.1718621822        0.4871241325
 H          6.3862594369       -1.1826718429        0.7649092705
 H          3.9682784389       -1.6650828828        0.9162997891
 H          2.3321269943        0.1411469822        0.6974443189
 H          1.7147496255        1.3009809506       -1.5448884092
 H         -0.6681481164        0.7023844279       -1.6498420717
 H         -1.0162126136       -0.3703478387        1.8000624816
 H          0.9362246920       -1.8719217996        1.7294130363
 H          1.5219841124       -1.4137850885       -1.9402369519
 H          3.3576482198       -0.6740572314       -3.3897724161
 H          5.5146810301       -1.8843068949       -3.3768523802
 H          5.8017891702       -3.8439249687       -1.8777861178
 H          4.3594816515       -6.6391256986        1.4469486832
 H          2.6710993063       -7.3873797712        3.1080126700
 H          0.4511809800       -6.2935609298        3.1591585968
 H         -0.0625709308       -4.4771072667        1.5913654976
 H         -0.4156471967       -3.4647789096       -1.9930575893
 H         -2.4106174780       -1.9938390827       -1.8963674156
 H         -6.6506080802       -0.9155040702       -0.7473856306
  81
  -143.762312897700       1.322533423522592E-002 !
 F         -9.6557187481        0.8068269456        0.6869055781
 C         -8.9129429594        0.6675374218       -0.4287802640
 F         -9.0976497333       -0.5902410842       -0.8491967501
 F         -9.4884426296        1.4632536791       -1.3516892829
 C         -7.4712979641        1.0201561706       -0.1980033693
 C         -7.1836309767        2.3316450939        0.2305926115
 C         -5.8900520595        2.7171369798        0.4445536857
 C         -4.8426710874        1.8000658730        0.2323810956
 N         -3.5605184682        2.2017373575        0.3473032504
 C         -2.6131641050        1.3217725585        0.1510432474
 C         -1.2171350802        1.7652640658        0.1474460455
 C         -0.7414180399        2.6297724993        1.1298933448
 C          0.6019850588        2.9443688771        1.1960112633
 C          1.4892433922        2.4139745791        0.2630209385
 N          2.8742591598        2.6452023529        0.3508590567
 C          3.4188140160        3.9227617034        0.1976205337
 C          2.6300787868        5.0565759688        0.0527581635
 C          3.2078577367        6.3086362718       -0.0946274350
 C          4.5809160121        6.4464634879       -0.1094213650
 C          5.3822217546        5.3197298393        0.0017118326
 C          4.8119020577        4.0684752101        0.1445191215
 O          5.6701810175        2.9981385389        0.2065703000
 C          5.1225057692        1.7587006976        0.4201116414
 C          5.9970827670        0.6977922934        0.5678388501
 C          5.5153499636       -0.5737586870        0.8397029173
 C          4.1570952748       -0.7707006067        0.9796866083
 C          3.2743707669        0.2837069207        0.8093982001
 C          3.7395515810        1.5570587615        0.5058776237
 C          1.0022501520        1.6115772845       -0.7677566090
 C         -0.3342585084        1.2893556331       -0.8238147102
 C         -2.9301683822       -0.0667855441       -0.0695162186
 C         -1.8488644905       -1.0606775855       -0.0608800340
 C         -0.9362081060       -1.0751879929        0.9931452786
 C          0.1718004984       -1.8936773764        0.9449494684
 C          0.3995876259       -2.6879244936       -0.1752534416
 N          1.6085237793       -3.4107555551       -0.2967475937
 C          2.6233300089       -2.9027267122       -1.1135776034
 C          2.4318722303       -1.7959130154       -1.9289678837
 C          3.4662910209       -1.3030830912       -2.7096362242
 C          4.7070639416       -1.9050652715       -2.6839775368
 C          4.9165707229       -3.0057165549       -1.8665670207
 C          3.8894867723       -3.5015341347       -1.0863216768
 O          4.1771101378       -4.5785860645       -0.2843626373
 C          3.2015601790       -4.9941938086        0.5891231994
 C          3.5269130134       -6.0153265598        1.4617506625
 C          2.5821019993       -6.4993425529        2.3555837379
 C          1.3114958679       -5.9605832994        2.3648633636
 C          0.9805155824       -4.9327870662        1.4945757604
 C          1.9204484366       -4.4275204158        0.6063265479
 C         -0.5443614223       -2.7297763010       -1.1954752621
 C         -1.6719901970       -1.9335108468       -1.1299001688
 N         -4.1614246275       -0.4524579254       -0.2669405509
 C         -5.1434023470        0.4675856837       -0.1625714738
 C         -6.4792947096        0.0934386013       -0.3925637767
 H         -7.9991164054        3.0231258550        0.3801202263
 H         -5.6410035261        3.7179497776        0.7593647858
 H         -1.4315951850        3.0189315431        1.8626231394
 H          0.9749292003        3.5772518649        1.9873727688
 H          1.5558383316        4.9609686940        0.0409653448
 H          2.5709443731        7.1730726181       -0.2014595062
 H          5.0350386941        7.4183714654       -0.2192594316
 H          6.4576900671        5.3894658718       -0.0304170977
 H          7.0539120969        0.8908483611        0.4773124723
 H          6.2031002112       -1.3958301917        0.9557238952
 H          3.7735456819       -1.7467749014        1.2321163504
 H          2.2137459360        0.1182500790        0.9182139897
 H          1.6901836729        1.2335191176       -1.5089668082
 H         -0.7034859747        0.6769730237       -1.6325821645
 H         -1.0929564120       -0.4322376555        1.8469270854
 H          0.8833669726       -1.9012185542        1.7575077822
 H          1.4675483169       -1.3129476448       -1.9477426248
 H          3.2915483735       -0.4424905040       -3.3375660977
 H          5.5156366993       -1.5238289925       -3.2868935133
 H          5.8772879611       -3.4923353870       -1.8160459739
 H          4.5244740514       -6.4226825532        1.4239028353
 H          2.8451014167       -7.2975102580        3.0314113799
 H          0.5636025928       -6.3370152839        3.0455707423
 H         -0.0181507959       -4.5236970543        1.4978539780
 H         -0.3760024285       -3.3732004945       -2.0460117354
 H         -2.4018511918       -1.9489629482       -1.9249763863
 H         -6.6914503266       -0.9165378663       -0.7063986285
