  72
       -112.58607009
 C         -5.6718589704        2.6720439261        1.1881722818
 C         -4.9636734698        1.5880381191        1.7011100101
 C         -3.7080553155        1.2586853198        1.2279286616
 C         -3.1711728914        2.0344205849        0.2115158408
 C         -3.8713228288        3.1529210629       -0.2949006869
 C         -5.1313893555        3.4665793005        0.1968641120
 C         -3.0192475487        3.7557249991       -1.2815516592
 C         -3.1606878662        4.8537376345       -2.1197169346
 C         -2.1342687923        5.1564867042       -2.9916717889
 C         -0.9865745633        4.3691861589       -3.0461273389
 C         -0.8234080485        3.2718528249       -2.2220127441
 C         -1.8393029293        2.9788523457       -1.3236909040
 N         -1.9437521105        1.9408090838       -0.4160124303
 C         -0.9729351096        0.9603686197       -0.1891182509
 C         -1.3223304372       -0.3858647979       -0.1908286075
 C         -0.3442785475       -1.3551028865        0.0055356377
 N         -0.6980162660       -2.7094152803        0.0073220109
 C         -0.1041824670       -3.7039544726       -0.7452397203
 C          0.9141491565       -3.6151470523       -1.6822439598
 C          1.3091780413       -4.7742720695       -2.3217874837
 C          0.7012601331       -5.9974357859       -2.0486656902
 C         -0.3322518998       -6.0883480896       -1.1378334592
 C         -0.7450596688       -4.9360647532       -0.4820652796
 C         -1.7739006607       -4.6633426658        0.4822526702
 C         -2.7114122573       -5.4571032081        1.1298524400
 C         -3.5621427787       -4.8659963716        2.0425049553
 C         -3.4731557266       -3.5053353299        2.3271295728
 C         -2.5474910733       -2.6970236270        1.6959591603
 C         -1.7108628263       -3.2779239725        0.7550517757
 C          0.9816102531       -0.9830202201        0.2000706968
 C          1.3276440214        0.3641146375        0.2021584597
 N          2.6531411823        0.7507785336        0.4255106570
 C          3.7668436951        0.2553421536       -0.2244630726
 C          3.8517149202       -0.6642769662       -1.2589283237
 C          5.1047722039       -0.9662586870       -1.7566016990
 C          6.2525544977       -0.3624047706       -1.2488423796
 C          6.1731042188        0.5740069813       -0.2373693778
 C          4.9239980556        0.8922641940        0.2787677433
 C          4.4776002101        1.8127914014        1.2869328233
 C          5.1375294963        2.6944897725        2.1327065147
 C          4.3915417929        3.4391117028        3.0241674209
 C          3.0070751008        3.3005289711        3.0895490548
 C          2.3284381063        2.4294706165        2.2585824957
 C          3.0700175953        1.6973012192        1.3427626594
 C          0.3514629314        1.3354520521        0.0094333547
 H         -6.6519399263        2.8958868595        1.5816036274
 H         -5.4031225651        0.9932821390        2.4879676437
 H         -3.1605566832        0.4306566817        1.6492655981
 H         -5.6713719033        4.3178792382       -0.1888906024
 H         -4.0585683745        5.4520263358       -2.0888199093
 H         -2.2218846002        6.0078029093       -3.6497202961
 H         -0.2071978837        4.6188605325       -3.7507046894
 H          0.0625909260        2.6589471387       -2.2890153257
 H         -2.3428587278       -0.6801972863       -0.3772338938
 H          1.3742100151       -2.6687979276       -1.9186536049
 H          2.1032919922       -4.7296734142       -3.0523090086
 H          1.0390621177       -6.8818860623       -2.5674886865
 H         -0.8168692579       -7.0326232669       -0.9400008677
 H         -2.7664849541       -6.5152317316        0.9242240570
 H         -4.3002964184       -5.4646253758        2.5542751857
 H         -4.1387125909       -3.0732865897        3.0596384374
 H         -2.4689312067       -1.6496530286        1.9413353383
 H          1.7326719335       -1.7352979189        0.3814762815
 H          2.9677992747       -1.1209574272       -1.6755006439
 H          5.1946357678       -1.6820576065       -2.5601619540
 H          7.2143478015       -0.6264546115       -1.6619142969
 H          7.0604468053        1.0556732354        0.1443513514
 H          6.2121539768        2.7877739351        2.0936033719
 H          4.8843319900        4.1318084535        3.6894479588
 H          2.4507231349        3.8842954668        3.8077683241
 H          1.2573930157        2.3170205014        2.3327574703
 H          0.6218765851        2.3790709968        0.0135423275
