  72
  -112.586070090000       0.151416863960275      !
 C         -5.6718589704        2.6720439261        1.1881722818
 C         -4.9636734698        1.5880381191        1.7011100101
 C         -3.7080553155        1.2586853198        1.2279286616
 C         -3.1711728914        2.0344205849        0.2115158408
 C         -3.8713228288        3.1529210629       -0.2949006869
 C         -5.1313893555        3.4665793005        0.1968641120
 C         -3.0192475487        3.7557249991       -1.2815516592
 C         -3.1606878662        4.8537376345       -2.1197169346
 C         -2.1342687923        5.1564867042       -2.9916717889
 C         -0.9865745633        4.3691861589       -3.0461273389
 C         -0.8234080485        3.2718528249       -2.2220127441
 C         -1.8393029293        2.9788523457       -1.3236909040
 N         -1.9437521105        1.9408090838       -0.4160124303
 C         -0.9729351096        0.9603686197       -0.1891182509
 C         -1.3223304372       -0.3858647979       -0.1908286075
 C         -0.3442785475       -1.3551028865        0.0055356377
 N         -0.6980162660       -2.7094152803        0.0073220109
 C         -0.1041824670       -3.7039544726       -0.7452397203
 C          0.9141491565       -3.6151470523       -1.6822439598
 C          1.3091780413       -4.7742720695       -2.3217874837
 C          0.7012601331       -5.9974357859       -2.0486656902
 C         -0.3322518998       -6.0883480896       -1.1378334592
 C         -0.7450596688       -4.9360647532       -0.4820652796
 C         -1.7739006607       -4.6633426658        0.4822526702
 C         -2.7114122573       -5.4571032081        1.1298524400
 C         -3.5621427787       -4.8659963716        2.0425049553
 C         -3.4731557266       -3.5053353299        2.3271295728
 C         -2.5474910733       -2.6970236270        1.6959591603
 C         -1.7108628263       -3.2779239725        0.7550517757
 C          0.9816102531       -0.9830202201        0.2000706968
 C          1.3276440214        0.3641146375        0.2021584597
 N          2.6531411823        0.7507785336        0.4255106570
 C          3.7668436951        0.2553421536       -0.2244630726
 C          3.8517149202       -0.6642769662       -1.2589283237
 C          5.1047722039       -0.9662586870       -1.7566016990
 C          6.2525544977       -0.3624047706       -1.2488423796
 C          6.1731042188        0.5740069813       -0.2373693778
 C          4.9239980556        0.8922641940        0.2787677433
 C          4.4776002101        1.8127914014        1.2869328233
 C          5.1375294963        2.6944897725        2.1327065147
 C          4.3915417929        3.4391117028        3.0241674209
 C          3.0070751008        3.3005289711        3.0895490548
 C          2.3284381063        2.4294706165        2.2585824957
 C          3.0700175953        1.6973012192        1.3427626594
 C          0.3514629314        1.3354520521        0.0094333547
 H         -6.6519399263        2.8958868595        1.5816036274
 H         -5.4031225651        0.9932821390        2.4879676437
 H         -3.1605566832        0.4306566817        1.6492655981
 H         -5.6713719033        4.3178792382       -0.1888906024
 H         -4.0585683745        5.4520263358       -2.0888199093
 H         -2.2218846002        6.0078029093       -3.6497202961
 H         -0.2071978837        4.6188605325       -3.7507046894
 H          0.0625909260        2.6589471387       -2.2890153257
 H         -2.3428587278       -0.6801972863       -0.3772338938
 H          1.3742100151       -2.6687979276       -1.9186536049
 H          2.1032919922       -4.7296734142       -3.0523090086
 H          1.0390621177       -6.8818860623       -2.5674886865
 H         -0.8168692579       -7.0326232669       -0.9400008677
 H         -2.7664849541       -6.5152317316        0.9242240570
 H         -4.3002964184       -5.4646253758        2.5542751857
 H         -4.1387125909       -3.0732865897        3.0596384374
 H         -2.4689312067       -1.6496530286        1.9413353383
 H          1.7326719335       -1.7352979189        0.3814762815
 H          2.9677992747       -1.1209574272       -1.6755006439
 H          5.1946357678       -1.6820576065       -2.5601619540
 H          7.2143478015       -0.6264546115       -1.6619142969
 H          7.0604468053        1.0556732354        0.1443513514
 H          6.2121539768        2.7877739351        2.0936033719
 H          4.8843319900        4.1318084535        3.6894479588
 H          2.4507231349        3.8842954668        3.8077683241
 H          1.2573930157        2.3170205014        2.3327574703
 H          0.6218765851        2.3790709968        0.0135423275
  72
  -112.586065620000       0.150702333609118      !
 C         -3.2721530044        5.4049333351        0.5428549840
 C         -2.3822432585        4.6887818596        1.3399268700
 C         -1.8162619803        3.5050091032        0.9061566747
 C         -2.1554177263        3.0504584507       -0.3599242513
 C         -3.0763631410        3.7577814384       -1.1657139204
 C         -3.6322040313        4.9451031980       -0.7080133270
 C         -3.2364871607        2.9936289197       -2.3713426428
 C         -3.9798116585        3.1806109499       -3.5291702326
 C         -3.8852550026        2.2405451424       -4.5359362662
 C         -3.0487604182        1.1345595481       -4.4061600255
 C         -2.2990093243        0.9291792603       -3.2640064015
 C         -2.4112054917        1.8540732419       -2.2369673817
 N         -1.7621985422        1.9005025505       -1.0185898706
 C         -0.8750027671        0.9414925239       -0.5190542717
 C         -1.2276343741       -0.4037084011       -0.5159088719
 C         -0.3516578969       -1.3481090937        0.0094748438
 N         -0.7050493831       -2.7020376883        0.0084949924
 C         -1.1671519625       -3.4150598810       -1.0811909969
 C         -1.3368319588       -3.0098957656       -2.3964027226
 C         -1.7955620588       -3.9410781464       -3.3080124906
 C         -2.0705595380       -5.2529913635       -2.9296727345
 C         -1.8746633039       -5.6715345915       -1.6287427755
 C         -1.4152105538       -4.7518692336       -0.6953593169
 C         -1.0855794068       -4.8417652470        0.6995751380
 C         -1.1328033002       -5.8745914676        1.6264194051
 C         -0.7552629980       -5.6134006113        2.9284100452
 C         -0.3532175268       -4.3369290258        3.3141791930
 C         -0.3004051786       -3.2941279160        2.4093863525
 C         -0.6491081972       -3.5563082367        1.0931001652
 C          0.8742167784       -0.9498519794        0.5325440131
 C          1.2239067996        0.3961378588        0.5267544276
 N          2.4680656313        0.8030526451        1.0197915002
 C          3.3700070832        1.6094354771        0.3511364921
 C          3.2935354963        2.1571586714       -0.9211203780
 C          4.3631083514        2.9118251004       -1.3642542170
 C          5.4895354599        3.1143085159       -0.5703822986
 C          5.5818831086        2.5512967562        0.6867478993
 C          4.5194988198        1.7888357609        1.1537696133
 C          4.2889808883        1.0567300597        2.3678412611
 C          5.0307001122        0.8725674227        3.5271031953
 C          4.4921580304        0.1086236910        4.5432152232
 C          3.2238952905       -0.4538690867        4.4205197676
 C          2.4677407483       -0.2829316487        3.2768913093
 C          3.0138672878        0.4601443866        2.2412391261
 C          0.3505488146        1.3421515428        0.0014536065
 H         -3.6907925459        6.3270594741        0.9169860713
 H         -2.1308378625        5.0645180408        2.3206231613
 H         -1.1429176427        2.9492681249        1.5410213342
 H         -4.3346642074        5.4907608406       -1.3194963739
 H         -4.6137467350        4.0474864508       -3.6370978002
 H         -4.4576490357        2.3653765630       -5.4426825521
 H         -2.9808835989        0.4241331255       -5.2166387700
 H         -1.6362528912        0.0821418412       -3.1833799404
 H         -2.1913624780       -0.7106030704       -0.8900828948
 H         -1.1028773366       -2.0035205680       -2.7055783575
 H         -1.9395039493       -3.6455906601       -4.3366644920
 H         -2.4307024837       -5.9511545202       -3.6700678215
 H         -2.0687442033       -6.6929987091       -1.3389134882
 H         -1.4625207782       -6.8588798478        1.3305431124
 H         -0.7805281992       -6.4034135290        3.6637269824
 H         -0.0806994599       -4.1566576659        4.3434783016
 H         -0.0109366835       -2.3039809352        2.7242216018
 H          1.5656732132       -1.6862927243        0.9100520753
 H          2.4345518682        1.9917391727       -1.5536732403
 H          4.3250628911        3.3510626170       -2.3500732459
 H          6.3031423231        3.7127256382       -0.9517762193
 H          6.4612660838        2.6939642314        1.2961539805
 H          6.0060702871        1.3235871867        3.6284402226
 H          5.0536880503       -0.0494657038        5.4516256018
 H          2.8203910741       -1.0324255117        5.2382328658
 H          1.4772687554       -0.7034604487        3.2016058431
 H          0.6238362944        2.3851042830       -0.0024271035
  72
  -112.586061790000       0.150092790234253      !
 C         -3.4528117062        5.2109949525        1.2407015780
 C         -2.5391006184        4.4318145576        1.9463736537
 C         -1.9480386755        3.3208912736        1.3760113390
 C         -2.2814012795        3.0061403676        0.0672923000
 C         -3.2285225944        3.7752645252       -0.6462951263
 C         -3.8119196103        4.8864963900       -0.0522434998
 C         -3.3772248902        3.1505151681       -1.9308806273
 C         -4.1369162871        3.4477572851       -3.0546017960
 C         -4.0236599871        2.6345507341       -4.1644533253
 C         -3.1521786463        1.5480227482       -4.1691483993
 C         -2.3859374089        1.2348331425       -3.0630907784
 C         -2.5168051891        2.0292467952       -1.9341160700
 N         -1.8599061245        1.9524667660       -0.7208552370
 C         -0.9273702635        0.9752807359       -0.3545156058
 C         -1.2348380189       -0.3713265875       -0.5182592968
 C         -0.3065090603       -1.3424058783       -0.1580571701
 N         -0.6181216960       -2.6987564219       -0.2971220480
 C         -1.1341199198       -3.3016150177       -1.4279277309
 C         -1.3911091800       -2.7616256210       -2.6790042046
 C         -1.8872289765       -3.6007631065       -3.6579705004
 C         -2.1129739017       -4.9524514172       -3.4091387860
 C         -1.8312100609       -5.5031907468       -2.1748588012
 C         -1.3344545332       -4.6776039115       -1.1749493603
 C         -0.9223420409       -4.9070505007        0.1816966835
 C         -0.9036435975       -6.0326868851        0.9944302602
 C         -0.4587014848       -5.9021502486        2.2946946182
 C         -0.0504343696       -4.6662217973        2.7904036603
 C         -0.0603424770       -3.5320938025        2.0007024183
 C         -0.4838815338       -3.6614328837        0.6859627642
 C          0.9257354753       -0.9679196823        0.3661938761
 C          1.2300496552        0.3791430398        0.5299196086
 N          2.4837076464        0.7486787782        1.0284992175
 C          3.7002483038        0.2886174184        0.5604644842
 C          3.9755522909       -0.5750850501       -0.4896769458
 C          5.3009728680       -0.8483120086       -0.7702841814
 C          6.3344540442       -0.2730286788       -0.0346858361
 C          6.0673248098        0.6056334669        0.9961574362
 C          4.7429885220        0.8945392373        1.2975721172
 C          4.1160139286        1.7556911447        2.2611467203
 C          4.6053426474        2.5824337658        3.2637027899
 C          3.7051703275        3.2733794349        4.0500591488
 C          2.3327846894        3.1348357141        3.8571488257
 C          1.8235035219        2.3165016148        2.8672709258
 C          2.7222759566        1.6397624808        2.0566050291
 C          0.3044455890        1.3526628020        0.1701842695
 H         -3.8914480869        6.0734044775        1.7195752929
 H         -2.2899279423        4.6988540258        2.9626643237
 H         -1.2604262336        2.7101194143        1.9395182817
 H         -4.5340760967        5.4787654580       -0.5933500414
 H         -4.7972326673        4.3016057165       -3.0570658242
 H         -4.6076089074        2.8463381771       -5.0474204902
 H         -3.0695756019        0.9397883618       -5.0576714762
 H         -1.6950856950        0.4068988943       -3.0862737670
 H         -2.2032260245       -0.6619698622       -0.8933205056
 H         -1.1967934137       -1.7219755374       -2.8898837136
 H         -2.1001366018       -3.1999145472       -4.6378484881
 H         -2.5030957746       -5.5761744867       -4.1991905659
 H         -1.9872493412       -6.5546658055       -1.9874547242
 H         -1.2366562372       -6.9862999480        0.6138481226
 H         -0.4349064302       -6.7647853720        2.9433501213
 H          0.2775380928       -4.5905972651        3.8164915608
 H          0.2404248250       -2.5767048638        2.4032439663
 H          1.6456467030       -1.7208913656        0.6440288323
 H          3.1846879826       -1.0136451618       -1.0792101669
 H          5.5398132979       -1.5200065010       -1.5814571285
 H          7.3570775037       -0.5131563634       -0.2842685770
 H          6.8675477993        1.0645084805        1.5567240754
 H          5.6686939868        2.6753799404        3.4238660653
 H          4.0647592879        3.9232313820        4.8335160132
 H          1.6513225840        3.6755386346        4.4971239693
 H          0.7587028457        2.1988653005        2.7414435555
 H          0.5534938669        2.3975850686        0.2655733227
  72
  -112.586059600000       0.149745360921786      !
 C         -3.2429950842        5.2207616820        1.7323681181
 C         -2.2461660314        4.4382587476        2.3100401453
 C         -1.7419195523        3.3242348333        1.6670072381
 C         -2.2499641409        3.0091400505        0.4158164599
 C         -3.2811886024        3.7817107855       -0.1651403683
 C         -3.7739407566        4.8965656623        0.4998444727
 C         -3.6074626815        3.1533247107       -1.4147420950
 C         -4.5120182124        3.4530071719       -2.4247817929
 C         -4.5598503340        2.6330670439       -3.5342752284
 C         -3.7090112925        1.5363293887       -3.6506076658
 C         -2.7998126058        1.2192099596       -2.6593967745
 C         -2.7645933784        2.0246198144       -1.5302721631
 N         -1.9466730148        1.9502433238       -0.4179870507
 C         -0.9683441783        0.9762243696       -0.1935963095
 C         -1.2869845777       -0.3682483943       -0.3500944756
 C         -0.3098567104       -1.3396849572       -0.1624952145
 N         -0.6444792973       -2.6913571891       -0.2954197084
 C          0.0347371732       -3.6308970789       -1.0459930211
 C          1.1392690974       -3.4750818527       -1.8698677697
 C          1.6109171084       -4.5882946219       -2.5387121117
 C          0.9954909105       -5.8305938007       -2.4050228999
 C         -0.1207131270       -5.9871340865       -1.6076773442
 C         -0.6112624308       -4.8823249175       -0.9245345420
 C         -1.7315379717       -4.6801719737       -0.0484541976
 C         -2.7119353857       -5.5236144972        0.4572234995
 C         -3.6530852533       -5.0003199291        1.3210466508
 C         -3.6158608059       -3.6585194378        1.6930776332
 C         -2.6511407970       -2.7996617645        1.2018132000
 C         -1.7174831264       -3.3142242817        0.3140701921
 C          0.9846406239       -0.9696668872        0.1852546899
 C          1.2994577062        0.3756579032        0.3466311010
 N          2.5994595589        0.7489829936        0.7058265822
 C          3.7629567788        0.3271728757        0.0916748983
 C          3.9322094947       -0.4765107835       -1.0256257571
 C          5.2213551158       -0.7265325309       -1.4549618608
 C          6.3233415991       -0.1830504540       -0.7990120889
 C          6.1610971513        0.6419315862        0.2959314855
 C          4.8741944503        0.9063603786        0.7454447887
 C          4.3465011773        1.7140176223        1.8093342770
 C          4.9329932414        2.5011555713        2.7914886297
 C          4.1162412774        3.1448290483        3.6995543623
 C          2.7324318828        2.9951688612        3.6486169235
 C          2.1277687255        2.2151214975        2.6819130822
 C          2.9398955895        1.5902237790        1.7477385893
 C          0.3252072152        1.3499275703        0.1554477678
 H         -3.6101573182        6.0851118738        2.2648461937
 H         -1.8617023968        4.7044584211        3.2834171170
 H         -0.9869238048        2.7121593903        2.1345147118
 H         -4.5598636544        5.4914950199        0.0599667134
 H         -5.1585183756        4.3133436232       -2.3413264441
 H         -5.2576015427        2.8462616908       -4.3299798750
 H         -3.7576562987        0.9212574305       -4.5368714026
 H         -2.1321165777        0.3783852754       -2.7714389666
 H         -2.2907744931       -0.6579603808       -0.6163674555
 H          1.6100406317       -2.5131217351       -1.9983028665
 H          2.4718500884       -4.4910126705       -3.1831539978
 H          1.3936050858       -6.6772229665       -2.9434536266
 H         -0.6091378179       -6.9455141046       -1.5179334671
 H         -2.7294137246       -6.5672649202        0.1822020382
 H         -4.4244524648       -5.6383057017        1.7250692358
 H         -4.3546326006       -3.2808448451        2.3841482557
 H         -2.6212283603       -1.7661236677        1.5120180175
 H          1.7336628178       -1.7248713498        0.3631039478
 H          3.0846746650       -0.8822527348       -1.5553315571
 H          5.3771309462       -1.3533254048       -2.3204019931
 H          7.3155547522       -0.4042874312       -1.1623621636
 H          7.0137724728        1.0784629089        0.7934442393
 H          6.0065489736        2.6007881634        2.8424272028
 H          4.5518567202        3.7644963962        4.4687821469
 H          2.1185892497        3.4952819609        4.3830867870
 H          1.0572461993        2.0851408937        2.6669623355
 H          0.5807163715        2.3937024702        0.2458869897
  72
  -112.586056170000       0.149202829101758      !
 C         -5.6365824251        2.7014430809        1.2358061963
 C         -4.9192241049        1.6251336396        1.7522338595
 C         -3.6737966411        1.2868087775        1.2589641874
 C         -3.1574083922        2.0456901151        0.2196001244
 C         -3.8665904375        3.1562222515       -0.2918165506
 C         -5.1162002172        3.4789067034        0.2204131407
 C         -3.0329994674        3.7416024308       -1.3044734964
 C         -3.1890481432        4.8244322439       -2.1595555996
 C         -2.1782678382        5.1108163407       -3.0550538035
 C         -1.0306887274        4.3236269172       -3.1148121970
 C         -0.8527224111        3.2414743723       -2.2739734567
 C         -1.8538968689        2.9638291999       -1.3546349191
 N         -1.9423853775        1.9408680448       -0.4291387314
 C         -0.9684530966        0.9629298009       -0.2023624349
 C         -1.3169649452       -0.3832318431       -0.1963680498
 C         -0.3382162176       -1.3513245943        0.0040941204
 N         -0.6900888083       -2.7056450213        0.0083538850
 C         -1.7237856223       -3.2701210931        0.7309038561
 C         -2.5780801200       -2.6879078478        1.6551384597
 C         -3.5225284333       -3.4927908121        2.2623870003
 C         -3.6131581208       -4.8518759307        1.9713977833
 C         -2.7447329813       -5.4449337683        1.0769452866
 C         -1.7882525864       -4.6544609322        0.4536809542
 C         -0.7388114249       -4.9313600571       -0.4867230784
 C         -0.3177055262       -6.0855276680       -1.1335508415
 C          0.7383688173       -6.0006239634       -2.0184798981
 C          1.3600833339       -4.7810396637       -2.2751702485
 C          0.9562990917       -3.6199312122       -1.6447925294
 C         -0.0847987034       -3.7026819589       -0.7327208864
 C          0.9868158156       -0.9757617848        0.1995808731
 C          1.3317751914        0.3716024910        0.1928223095
 N          2.6555256017        0.7609646463        0.4224804499
 C          3.7762390719        0.2594261064       -0.2100579035
 C          3.8715128213       -0.6585211750       -1.2451173143
 C          5.1304910476       -0.9695354202       -1.7217451132
 C          6.2740661758       -0.3756038835       -1.1930724878
 C          6.1845851999        0.5604391337       -0.1821824404
 C          4.9293436797        0.8875274216        0.3132128386
 C          4.4727702726        1.8084555133        1.3164135391
 C          5.1245569923        2.6826059618        2.1761576465
 C          4.3690811985        3.4285145213        3.0585445788
 C          2.9828852737        3.2991064507        3.1007922614
 C          2.3121426378        2.4358747303        2.2554492359
 C          3.0637756644        1.7018687013        1.3494224490
 C          0.3557344094        1.3411036656       -0.0094814668
 H         -6.6078714917        2.9334154760        1.6459905050
 H         -5.3428915693        1.0445239615        2.5582473742
 H         -3.1168450306        0.4660383931        1.6823576979
 H         -5.6634919147        4.3245471741       -0.1674040035
 H         -4.0862331009        5.4235015473       -2.1239512806
 H         -2.2781443470        5.9495869233       -3.7272998494
 H         -0.2636793959        4.5613418703       -3.8368497623
 H          0.0325514416        2.6276447303       -2.3433256804
 H         -2.3380081051       -0.6779863871       -0.3794556295
 H         -2.4994125988       -1.6421829755        1.9068876413
 H         -4.2016325461       -3.0591572571        2.9809026079
 H         -4.3669456942       -5.4475985128        2.4634506301
 H         -2.8012768349       -6.5020101751        0.8659374748
 H         -0.8125005868       -7.0267295582       -0.9480327241
 H          1.0838131508       -6.8869048090       -2.5292151351
 H          2.1729190815       -4.7405423316       -2.9852020977
 H          1.4289884440       -2.6769250831       -1.8694657537
 H          1.7386764708       -1.7251716488        0.3893802835
 H          2.9908756622       -1.1065394727       -1.6779388729
 H          5.2288446320       -1.6851540639       -2.5245001008
 H          7.2407211036       -0.6463080965       -1.5902675743
 H          7.0689912198        1.0348244408        0.2151869344
 H          6.2002136632        2.7694561206        2.1543934547
 H          4.8554492184        4.1158895975        3.7341559345
 H          2.4187449786        3.8835676232        3.8123597231
 H          1.2393197587        2.3305336542        2.3114891015
 H          0.6252568483        2.3850179440       -0.0153686351
  72
  -112.586054250000       0.148899996368272      !
 C         -3.0383011845        5.3600222527        1.5665289755
 C         -1.9998605155        4.6054857350        2.1071878593
 C         -1.5549617051        3.4476373039        1.4977787461
 C         -2.1703864668        3.0592078329        0.3166464608
 C         -3.2415118844        3.8052370273       -0.2254928219
 C         -3.6717525994        4.9649664165        0.4053491573
 C         -3.6718111457        3.1065917570       -1.4043509086
 C         -4.6522494238        3.3541234510       -2.3559237813
 C         -4.7909427526        2.4716798129       -3.4085929555
 C         -3.9554788767        1.3637171167       -3.5280826318
 C         -2.9731516541        1.0982067302       -2.5935322042
 C         -2.8466881445        1.9647512678       -1.5182549857
 N         -1.9427297613        1.9476944099       -0.4735715786
 C         -0.9722176678        0.9682055526       -0.2401591109
 C         -1.3212202681       -0.3782352913       -0.2467997578
 C         -0.3549823203       -1.3436583594        0.0141337142
 N         -0.7035567158       -2.6994906140        0.0072524817
 C         -0.4408542614       -3.6075157146        1.0138912034
 C          0.1503580926       -3.4070095095        2.2520801223
 C          0.2707269111       -4.4943518071        3.0956490864
 C         -0.1946386046       -5.7543954394        2.7265357563
 C         -0.8091108689       -5.9549664228        1.5066808974
 C         -0.9402537752       -4.8764587371        0.6418769098
 C         -1.5272707305       -4.7182580912       -0.6594192223
 C         -2.1507794965       -5.5926518554       -1.5397427702
 C         -2.5903643381       -5.1071184406       -2.7550974711
 C         -2.3988755015       -3.7724359352       -3.1047807906
 C         -1.7800004045       -2.8850658480       -2.2457217731
 C         -1.3616569733       -3.3594754054       -1.0117841439
 C          0.9577823037       -0.9686037881        0.2780349994
 C          1.3047498068        0.3781883232        0.2792156289
 N          2.6302671998        0.7636380984        0.5018228175
 C          3.3578044055        1.6256863433       -0.2978475153
 C          2.9906893340        2.2665778017       -1.4722609256
 C          3.9347650873        3.0581524128       -2.0981894633
 C          5.2189260292        3.2072007788       -1.5798577417
 C          5.5979104113        2.5523187322       -0.4252726803
 C          4.6662127808        1.7511854493        0.2214522468
 C          4.7218435173        0.9247555473        1.3948686038
 C          5.7161397030        0.6557495732        2.3259199691
 C          5.4280844004       -0.1940902276        3.3751896844
 C          4.1622707032       -0.7587521745        3.5116169099
 C          3.1569104936       -0.5027780592        2.5989851555
 C          3.4472047431        0.3283437292        1.5274491481
 C          0.3397696895        1.3465513866        0.0234010698
 H         -3.3548348676        6.2602077703        2.0714923218
 H         -1.5331692094        4.9300473529        3.0253178542
 H         -0.7626424107        2.8615739742        1.9381971953
 H         -4.4883127898        5.5392493612       -0.0051964033
 H         -5.2873370353        4.2228478076       -2.2722290045
 H         -5.5487097846        2.6442698037       -4.1578738592
 H         -4.0741206269        0.6999725147       -4.3714885504
 H         -2.3170962950        0.2500004722       -2.7087955114
 H         -2.3439318480       -0.6721181889       -0.4220066713
 H          0.4910357418       -2.4295966366        2.5561250030
 H          0.7311972642       -4.3632903854        4.0636443131
 H         -0.0802131966       -6.5804051280        3.4122669554
 H         -1.1856306752       -6.9274209444        1.2279190814
 H         -2.2821109077       -6.6312392668       -1.2764928697
 H         -3.0798473431       -5.7698473055       -3.4526177391
 H         -2.7370414917       -3.4244345111       -4.0695340497
 H         -1.6140607989       -1.8590576605       -2.5343713394
 H          1.7104861891       -1.7223547786        0.4461920467
 H          2.0059518571        2.1426586692       -1.8966684201
 H          3.6710742253        3.5686343043       -3.0125518832
 H          5.9269402483        3.8367958031       -2.0973773516
 H          6.5979821978        2.6533870899       -0.0318606669
 H          6.6918238574        1.1067735820        2.2283970751
 H          6.1884382074       -0.4203810483        4.1073061643
 H          3.9603390378       -1.4084692972        4.3502486974
 H          2.1742149449       -0.9283771418        2.7274407480
 H          0.6093389029        2.3904137403        0.0268661324
  72
  -112.585677470000       9.993982580453786E-002 !
 C         -5.7731309080        2.6699652505        0.4467491072
 C         -5.1310356277        1.5887011328        1.0456407239
 C         -3.8301598793        1.2519791124        0.7225647814
 C         -3.1791945856        2.0222918774       -0.2301197497
 C         -3.8145489974        3.1360764375       -0.8249215615
 C         -5.1221668669        3.4550159540       -0.4837602811
 C         -2.8535955933        3.7298538335       -1.7123134276
 C         -2.8955040386        4.8179435667       -2.5739531483
 C         -1.7738676131        5.1117218343       -3.3233080897
 C         -0.6269495468        4.3264844159       -3.2331921425
 C         -0.5615302234        3.2388471305       -2.3831047208
 C         -1.6765845959        2.9543074740       -1.6081920414
 N         -1.8870527863        1.9247013572       -0.7105184719
 C         -0.9475698635        0.9564686243       -0.3441787414
 C         -1.2964613819       -0.3897934325       -0.3529203476
 C         -0.3597656086       -1.3490528942        0.0150042838
 N         -0.7083952236       -2.7035853587        0.0121747839
 C         -1.3014674087       -3.3838999662       -1.0335855840
 C         -1.6462979681       -2.9323479670       -2.2991248940
 C         -2.2027013227       -3.8417050949       -3.1785363554
 C         -2.4072876129       -5.1713540462       -2.8173777646
 C         -2.0462246643       -5.6311991870       -1.5666581517
 C         -1.4847986284       -4.7363360465       -0.6654760944
 C         -0.9828419166       -4.8671256477        0.6741557075
 C         -0.9104006245       -5.9273218683        1.5679948538
 C         -0.3775695476       -5.7004257698        2.8212731290
 C          0.0676322359       -4.4336906837        3.1921800891
 C          0.0069406630       -3.3634515578        2.3200114022
 C         -0.5074460322       -3.5906920697        1.0518731832
 C          0.9253536022       -0.9667194752        0.3830801385
 C          1.2732922464        0.3794209765        0.3824180459
 N          2.5711856654        0.7636685889        0.7331148951
 C          3.7348154567        0.2330623964        0.2096324405
 C          3.9026415071       -0.7350531320       -0.7697282654
 C          5.1936372171       -1.0616000761       -1.1391975213
 C          6.2960445127       -0.4387821779       -0.5586639697
 C          6.1344137989        0.5415947854        0.3998807422
 C          4.8465465505        0.8873819867        0.7872475471
 C          4.3182621461        1.8545747356        1.7087104187
 C          4.9051042960        2.7692084816        2.5730594246
 C          4.0865407554        3.5570328055        3.3574830088
 C          2.7005497333        3.4312088304        3.2982086405
 C          2.0934258092        2.5279122102        2.4465262844
 C          2.9103115450        1.7498163771        1.6391294262
 C          0.3364127052        1.3425458160        0.0248757176
 H         -6.7907580111        2.8992458508        0.7249113013
 H         -5.6593537991        1.0022625034        1.7826546989
 H         -3.3370491384        0.4237462676        1.2087101009
 H         -5.6128235193        4.3037624130       -0.9353216704
 H         -3.7905802567        5.4156032478       -2.6558755020
 H         -1.7840818475        5.9549446818       -3.9973785277
 H          0.2298224014        4.5698274262       -3.8438408853
 H          0.3262984714        2.6263980505       -2.3374366083
 H         -2.2901573086       -0.6893773523       -0.6448905234
 H         -1.4764738642       -1.9081412078       -2.5955163662
 H         -2.4819896137       -3.5139295017       -4.1688719481
 H         -2.8459102319       -5.8504766252       -3.5328759350
 H         -2.1888486252       -6.6655076788       -1.2926383414
 H         -1.2702708335       -6.9051967116        1.2861929640
 H         -0.3122671210       -6.5109563760        3.5313539009
 H          0.4652872392       -4.2828054357        4.1847695718
 H          0.3387346675       -2.3819292547        2.6236719852
 H          1.6504728549       -1.7128230723        0.6661650373
 H          3.0556212674       -1.2110084694       -1.2404045399
 H          5.3500350886       -1.8134692305       -1.8984130862
 H          7.2887523273       -0.7228842877       -0.8739023717
 H          6.9880104943        1.0365861091        0.8374341582
 H          5.9795626003        2.8550222762        2.6302255607
 H          4.5222583123        4.2759281690        4.0348842568
 H          2.0859489973        4.0506528402        3.9343953561
 H          1.0188576243        2.4262982287        2.4225006784
 H          0.6060899102        2.3863656969        0.0311006489
