78
 energy: -136.783452232209 gnorm: 0.000138987899 xtb: 6.7.1 (edcfbbe)
F           -9.03274601573556       -1.35373109649292       -0.24955720023988
C           -7.86963440600083       -0.68371232198201       -0.12499572572003
C           -6.67628654646512       -1.37996044291921       -0.24963933500192
C           -5.46207433136656       -0.71430272317682       -0.12314324191918
N           -4.29063071930530       -1.35434980738408       -0.19401963545683
C           -3.13758103016016       -0.70296342658643       -0.07106551820978
C           -1.89469172869612       -1.47128912206984       -0.05937926957047
C           -0.88415553202415       -1.18358312313556        0.86224920103578
C            0.31673863669046       -1.85559957545403        0.81327515724032
C            0.53037992627800       -2.83587338038790       -0.15253583715684
N            1.79743546528474       -3.46094488282706       -0.23880139650057
C            1.96528823384671       -4.80101593232457        0.09631816701642
C            0.90133833929592       -5.60710055950847        0.48513466427238
C            1.10662490769096       -6.93808423969802        0.80924053737168
C            2.37555409132935       -7.48326530408795        0.75823676751001
C            3.45084524130081       -6.68669537437085        0.39583491260695
C            3.25383256359649       -5.35626973421615        0.07324531083146
O            4.36479370672850       -4.61838880467090       -0.24657166249588
C            4.17795915650683       -3.30808757209634       -0.59971517767188
C            5.29939205143351       -2.58065676195397       -0.95605871202356
C            5.17665960918326       -1.25809604075988       -1.35319443997994
C            3.92601857536340       -0.67361517864389       -1.40819181080402
C            2.79952875682468       -1.39341157056359       -1.04609218968911
C            2.90808866818695       -2.71151609842841       -0.61603673563775
C           -0.49371478378257       -3.17602719528905       -1.02980419774792
C           -1.69862147445272       -2.50411940363354       -0.97611333701983
C           -3.13756009577399        0.69950783187189        0.06672205937724
C           -1.89517499740983        1.46835093203786        0.05441382942242
C           -1.70166273437324        2.50452392729235        0.96806509140422
C           -0.49732944181368        3.17737305733002        1.02200072067823
C            0.52889378045771        2.83452819882027        0.14833730042181
N            1.79575831911388        3.46022912924218        0.23586488345121
C            1.96561824725042        4.79686109548149       -0.11118925532492
C            0.90377949807265        5.59878345484074       -0.51400760621023
C            1.11093420541960        6.92645884782291       -0.85032632919151
C            2.37956117351612        7.47215686659652       -0.79748085312907
C            3.45278653073765        6.67954614844620       -0.42040079274535
C            3.25392524368966        5.35246924372451       -0.08551501688836
O            4.36278814671329        4.61795699256034        0.24923303050776
C            4.17371184971669        3.31100970279029        0.61369850900117
C            5.29271313887985        2.58711955622385        0.98448468473590
C            5.16735747566531        1.26809178631096        1.39255433293433
C            3.91654676223851        0.68363253909656        1.44354637384073
C            2.79241379942661        1.39997705109873        1.06745222384367
C            2.90384125445677        2.71438173065661        0.62702168570304
C            0.31791697762813        1.85121755103540       -0.81485151466525
C           -0.88263987918236        1.17861016335078       -0.86443986328854
N           -4.29090977482109        1.35052113770909        0.19136534042579
C           -5.46212417457699        0.71005521687765        0.12227648668846
C           -6.67645983657994        1.37513738466966        0.25117160318587
C           -7.86968987330342        0.67830439227319        0.12887942096206
F           -9.03286451595771        1.34775162619073        0.25580480357993
H           -6.68899253568265       -2.44111524512041       -0.43380398474761
H           -1.04899963582506       -0.43428425562635        1.62169526183697
H            1.10250662859523       -1.62774091518705        1.51862138138784
H           -0.09001921445483       -5.18605452873085        0.54102050462877
H            0.26483865064932       -7.54456028827996        1.10503028045115
H            2.53734930628126       -8.51998949704623        1.00675957578828
H            4.45503270428288       -7.07772369416399        0.36289577287537
H            6.25896835544221       -3.07090053193329       -0.92054666747555
H            6.05546194934284       -0.69613250152378       -1.62565651531160
H            3.82013372631538        0.34963429219367       -1.73311453435058
H            1.82565899449723       -0.93267138812461       -1.09571281709062
H           -0.33221523277702       -3.95247521892921       -1.76303169080868
H           -2.49213617610342       -2.75106642543449       -1.66428044139333
H           -2.49688735679104        2.75331740970503        1.65356697190932
H           -0.33786534711842        3.95675337272090        1.75255308321853
H           -0.08719378279681        5.17692929036155       -0.57096004287419
H            0.27089655652417        7.52990666916925       -1.15707110621999
H            2.54279020081516        8.50629051441229       -1.05567022414038
H            4.45666168378883        7.07117686767188       -0.38523926378235
H            6.25246764706152        3.07717981292646        0.95133347583523
H            6.04433528211441        0.70889104864865        1.67634366060493
H            3.80864706893427       -0.33689171685761        1.77628776423571
H            1.81826575193140        0.93947671039893        1.11396019569170
H            1.10536087437657        1.62153354240982       -1.51774149302323
H           -1.04554138384635        0.42729081249686       -1.62227672019676
H           -6.68935610063856        2.43627656458734        0.43539995514969
