78
 energy: -136.782751997940 gnorm: 0.000170572631 xtb: 6.7.1 (edcfbbe)
F           -9.36364573236513       -1.20197512937355       -0.65856331983742
C           -8.20111668158421       -0.60168888273856       -0.33380938394321
C           -7.00682712619247       -1.22751534436855       -0.66431297667165
C           -5.79185259644770       -0.63472246055853       -0.34152470903755
N           -4.62145962721987       -1.22278683188806       -0.61640764398726
C           -3.47486743094198       -0.63214269158462       -0.30237379891929
C           -2.16949648118673       -1.28419358360305       -0.49338681688742
C           -1.41588958592880       -1.59155359365906        0.63915213151994
C           -0.10582053642025       -2.00023575498171        0.52379769672017
C            0.48785780785541       -2.08277559138978       -0.73265349149175
N            1.87802584373026       -2.32361861480798       -0.83356039480119
C            2.44066346132901       -3.45187129522169       -0.23850576098042
C            1.66106065441664       -4.52057508463836        0.19010387672806
C            2.24499863150469       -5.63284202472443        0.77362872802953
C            3.61643892607973       -5.70069576375553        0.93022832749269
C            4.41031664052542       -4.65795927319037        0.47870447542589
C            3.83338765696409       -3.54652347776945       -0.10929914048037
O            4.67948461923610       -2.57008757653811       -0.56421957028810
C            4.11586386128667       -1.45673306638684       -1.12589080269847
C            4.98159418976802       -0.46281961005312       -1.54676824802126
C            4.48950585255892        0.71063128028995       -2.09437086340004
C            3.12420529986583        0.88413102453993       -2.21054160613139
C            2.25291088789706       -0.11178289305611       -1.79979385073984
C            2.72879031038780       -1.30138528019393       -1.26161661008832
C           -0.28864924929015       -1.87764043699863       -1.86928773627462
C           -1.61063367413890       -1.48929446794244       -1.75008818283444
C           -3.47402331424892        0.63921877524644        0.29528188167719
C           -2.16763582453174        1.28873357311710        0.48795283897258
C           -1.61009629841954        1.49284695117150        1.74540482555918
C           -0.28752146753736        1.87860549896574        1.86637688340706
C            0.49094347404525        2.08210405161543        0.73078539596111
N            1.88144282889746        2.32016599479417        0.83360499580413
C            2.44719663925605        3.44724180723168        0.23929518337109
C            1.67035793751081        4.51742046889357       -0.19066356550458
C            2.25738108222232        5.62847398612956       -0.77339885298125
C            3.62919648793159        5.69363808733544       -0.92784577859667
C            4.42032562260187        4.64940789439909       -0.47495761560667
C            3.84030607054539        3.53916439958045        0.11226075417529
O            4.68377857766479        2.56113887424109        0.56861453437767
C            4.11711682397925        1.44891495375871        1.12944588628824
C            4.98024537711146        0.45331969761473        1.55169663498640
C            4.48501132884048       -0.71914306567790        2.09857347475877
C            3.11919394730828       -0.88996378575487        2.21263052571235
C            2.25049097917770        0.10763593377116        1.80050085747809
C            2.72953128799340        1.29629206693105        1.26302651812899
C           -0.10117400219277        2.00062813489666       -0.52647115247330
C           -1.41188767074830        1.59452018911287       -0.64358299380519
N           -4.61985619442035        1.23199497632757        0.60804659214410
C           -5.79104267432993        0.64607787553912        0.33197304323407
C           -7.00525961266683        1.24105980631577        0.65355817140639
C           -8.20034380115733        0.61737537055528        0.32189208932779
F           -9.36210852910003        1.21974349656301        0.64552928650680
H           -7.02012680954914       -2.18019778838203       -1.16653789837305
H           -1.86030996199659       -1.48451755131801        1.61733807419113
H            0.47558968227418       -2.22911486051532        1.40370403304060
H            0.59102068960682       -4.48111431347466        0.05845494887799
H            1.61809502043273       -6.44739970226024        1.10141143678900
H            4.07395674739224       -6.56255631890070        1.38928197366584
H            5.48429238231480       -4.68905399010172        0.56820038983656
H            6.04020073075710       -0.62601009564685       -1.42649883584929
H            5.17039542558365        1.48310918556341       -2.41414900737068
H            2.72861077386459        1.80005297778713       -2.62433977400010
H            1.18915197784660        0.03693480564040       -1.88676085859605
H            0.15595171690605       -2.00195946812069       -2.84564837638356
H           -2.20399432566140       -1.30819044634779       -2.63352071087443
H           -2.20501911671302        1.31297969003959        2.62803873898234
H            0.15599670467233        2.00210862084016        2.84333325941500
H            0.60003790159706        4.48007464522111       -0.06068662425189
H            1.63258171847474        6.44421200423416       -1.10226185176478
H            4.08911679514359        6.55455309643261       -1.38627216524043
H            5.49449970215193        4.67840067543435       -0.56275843616376
H            6.03935446936524        0.61443342797064        1.43306742121611
H            5.16388963850312       -1.49293824912927        2.41943985914856
H            2.72116433419836       -1.80509009259123        2.62585274635610
H            1.18630985133015       -0.03900409924127        1.88581835490809
H            0.48188005617271        2.22829574858038       -1.40560273086677
H           -1.85519325596057        1.48831750698362       -1.62236425804635
H           -7.01733677535812        2.19376296295540        1.15577452662468
