  78
       -136.77767051
 F         -9.0296528513       -1.3220332794       -0.2923368251
 C         -7.8629375263       -0.6622230517       -0.1424488328
 C         -6.6724143360       -1.3603085268       -0.2881777863
 C         -5.4551684332       -0.7042200158       -0.1352779196
 N         -4.2878696575       -1.3494048423       -0.2140883440
 C         -3.1343571717       -0.7066888582       -0.0727217632
 C         -1.8954165181       -1.4786269360       -0.0643647918
 C         -0.8868164623       -1.2033822608        0.8645204762
 C          0.3115926268       -1.8786929880        0.8135589341
 C          0.5257288332       -2.8500382449       -0.1616885729
 N          1.7920165197       -3.4778564189       -0.2486162287
 C          1.9544486252       -4.8220902916        0.0692460252
 C          0.8853243348       -5.6324121041        0.4356889991
 C          1.0859049325       -6.9679063006        0.7426909447
 C          2.3550557949       -7.5141551487        0.6974478937
 C          3.4350128479       -6.7143933876        0.3573572211
 C          3.2428258432       -5.3791950590        0.0509421015
 O          4.3571115292       -4.6385865927       -0.2477692601
 C          4.1758194105       -3.3238852181       -0.5848425473
 C          5.3017886099       -2.5930828536       -0.9203030280
 C          5.1841899382       -1.2652093918       -1.3000260555
 C          3.9344449458       -0.6780458785       -1.3585828424
 C          2.8037836455       -1.4006268904       -1.0170725223
 C          2.9064609777       -2.7254195307       -0.6048146878
 C         -0.4956733062       -3.1777928217       -1.0474481229
 C         -1.6985371273       -2.5034253137       -0.9911054189
 C         -3.1283152969        0.6964390998        0.0906285698
 C         -1.8854258867        1.4614568637        0.0791087708
 C         -1.6909375195        2.4991627415        0.9922875949
 C         -0.4888213077        3.1751926973        1.0419331638
 C          0.5350621099        2.8355053258        0.1637824460
 N          1.7990627643        3.4704295119        0.2420218892
 C          1.9586545078        4.8029425664       -0.1215298996
 C          0.8897014686        5.5924457508       -0.5312606487
 C          1.0870596056        6.9165714102       -0.8855633071
 C          2.3525947481        7.4714747496       -0.8443501588
 C          3.4323100322        6.6920358971       -0.4591947791
 C          3.2434118185        5.3682157688       -0.1053344201
 O          4.3568347648        4.6461220372        0.2388378618
 C          4.1778358324        3.3426365730        0.6184345109
 C          5.3024495235        2.6305290059        0.9957951064
 C          5.1863405986        1.3149959074        1.4170522107
 C          3.9394043136        0.7215180756        1.4739272993
 C          2.8098741118        1.4255898620        1.0920654890
 C          2.9116090045        2.7372673153        0.6398233892
 C          0.3250099560        1.8493504399       -0.7969774078
 C         -0.8734137057        1.1734012230       -0.8422679267
 N         -4.2773883676        1.3479451248        0.2333650887
 C         -5.4494224464        0.7124099381        0.1535475816
 C         -6.6617051326        1.3782578822        0.3058856766
 C         -7.8575692820        0.6898712175        0.1587783932
 F         -9.0190496047        1.3591714429        0.3070773052
 H         -6.6889902497       -2.4147969046       -0.5066060452
 H         -1.0526791687       -0.4615526855        1.6310246730
 H          1.0952551962       -1.6615121429        1.5247545863
 H         -0.1059637404       -5.2108321435        0.4872633580
 H          0.2405117417       -7.5775178970        1.0211920939
 H          2.5129632457       -8.5544352197        0.9334649441
 H          4.4389854055       -7.1063822851        0.3292934043
 H          6.2602960470       -3.0851601969       -0.8825182133
 H          6.0659234285       -0.7004473221       -1.5566697241
 H          3.8332701524        0.3495003971       -1.6710346955
 H          1.8310420541       -0.9379797536       -1.0693067594
 H         -0.3330008736       -3.9466012813       -1.7885324652
 H         -2.4912416814       -2.7409366597       -1.6834582744
 H         -2.4857121386        2.7464437497        1.6787097400
 H         -0.3289123892        3.9561934897        1.7707498119
 H         -0.0983503184        5.1628062193       -0.5785891120
 H          0.2422049830        7.5106374749       -1.1971579824
 H          2.5078448587        8.5030316535       -1.1173222270
 H          4.4333362482        7.0914220963       -0.4317938775
 H          6.2586513656        3.1271059430        0.9570737716
 H          6.0672905026        0.7648878241        1.7063517780
 H          3.8393755023       -0.2966643123        1.8160789796
 H          1.8390188218        0.9586131595        1.1425961949
 H          1.1104952120        1.6226398543       -1.5031624213
 H         -1.0368627424        0.4225851444       -1.6004564427
 H         -6.6699424713        2.4328565009        0.5242062497
