78
 energy: -136.831132913780 gnorm: 0.000058410606 xtb: 6.7.1 (edcfbbe)
F           -1.31232423888889        9.42153739559893       -0.33293774829622
C           -0.68528003073512        8.24638520286139       -0.17240201403980
C           -1.37196762429744        7.07664141509049       -0.33627344148797
C           -0.69512296550115        5.85591960283286       -0.15609599541330
N           -1.37222405062513        4.69547714200375       -0.22807651612253
C           -0.71564041018741        3.57160472704021       -0.07112972647222
C           -1.49536198304090        2.33192246736045       -0.04269090268492
C           -1.18990428363636        1.30325033463654        0.84976768408419
C           -1.88853115138253        0.11634341092248        0.80745184915184
C           -2.90824344469952       -0.06701016198896       -0.12480413348242
N           -3.56873585628701       -1.30832127210316       -0.20042575257245
C           -4.93275672857227       -1.42070870295964        0.07991398128609
C           -5.70739097868487       -0.32928099937322        0.45083628154040
C           -7.05822247608162       -0.47921021835843        0.72605388111754
C           -7.65337195862832       -1.72157214355108        0.64479339041593
C           -6.88624298999873       -2.82650098759460        0.30583261124054
C           -5.53843829215555       -2.68360416140280        0.03420063127708
O           -4.83726709446415       -3.82803261008605       -0.25645311468369
C           -3.50889834426121       -3.69412120616337       -0.57393034677514
C           -2.82634794593164       -4.84394508840610       -0.92538745909513
C           -1.49112309711760       -4.78031459566489       -1.29591500650019
C           -0.85169877367240       -3.55820320787236       -1.33161023154212
C           -1.52922194531911       -2.40304203200087       -0.97203204858975
C           -2.85643441038593       -2.45433431465182       -0.56498007140982
C           -3.25319221262426        0.97721044794222       -0.97894914859325
C           -2.55708199992195        2.16754774553050       -0.93024654628444
C            0.71470139290526        3.57175778843699        0.07095120975807
C            1.49470696513841        2.33225469703657        0.04249817092116
C            2.55647378427107        2.16814915597671        0.93004903080696
C            3.25288228373180        0.97798848667300        0.97875465994574
C            2.90818884849364       -0.06632436479475        0.12461899125707
N            3.56900510448585       -1.30746352414543        0.20023852018893
C            4.93307702524891       -1.41947530699616       -0.08000255203919
C            5.70742423544708       -0.32784718087156       -0.45093445315648
C            7.05831733133125       -0.47740597068264       -0.72605138017598
C            7.65381480556771       -1.71959417350757       -0.64468401941932
C            6.88697801666432       -2.82472315218688       -0.30571562518356
C            5.53911392931293       -2.68219660678206       -0.03418468262044
O            4.83824344237965       -3.82681011989307        0.25646824474817
C            3.50985433653885       -3.69323819190765        0.57400428150296
C            2.82764384215364       -4.84321596228926        0.92561612560603
C            1.49241534394042       -4.77992112200956        1.29618998759448
C            0.85264946652888       -3.55798572320959        1.33178492304558
C            1.52983259708072       -2.40267135161816        0.97205615503399
C            2.85704230092514       -2.45363514230963        0.56495440317562
C            1.88841677888161        0.11676276111537       -0.80762319599484
C            1.18949324989423        1.30349671392071       -0.84994449163042
N            1.37103731131250        4.69576808877230        0.22794906884206
C            0.69367955596735        5.85606396720039        0.15603706268522
C            1.37025358180436        7.07692198893363        0.33630714760427
C            0.68330402430219        8.24652528405620        0.17253380390795
F            1.31008321638850        9.42180477610493        0.33317230904524
H           -2.42011762037001        7.07662654080334       -0.58653168219668
H           -0.41517856274981        1.44209683562621        1.58903840398163
H           -1.64974561032274       -0.68317600840244        1.49306301057939
H           -5.25060091402553        0.64416224679971        0.53648103592624
H           -7.63721142430804        0.38657968166301        1.00814219241440
H           -8.70450326693769       -1.84267827006706        0.85332756478790
H           -7.31553765257277       -3.81421774350759        0.25404805573140
H           -3.36130165878927       -5.77997293502651       -0.90837834000325
H           -0.96487894857385       -5.68235183500460       -1.56418243284923
H            0.18094364853045       -3.49320707235829       -1.63698062419767
H           -1.02167201726125       -1.45179734413668       -1.01044864839878
H           -4.05359834574987        0.84019206591272       -1.69070019551251
H           -2.80502825820852        2.97677239062009       -1.59941618357866
H            2.80422335435868        2.97744224706145        1.59920842973693
H            4.05332570453443        0.84117398676928        1.69050300059693
H            5.25036256452213        0.64546093753724       -0.53666667939806
H            7.63708022526511        0.38853562921321       -1.00813810093940
H            8.70499951540722       -1.84040786671128       -0.85311980363230
H            7.31655262351551       -3.81231376266340       -0.25384021113598
H            3.36286672276544       -5.77909166288859        0.90871045505136
H            0.96644925774336       -5.68207333874830        1.56461658875183
H           -0.17999650292965       -3.49324535083456        1.63719921707817
H            1.02201221440596       -1.45156692105629        1.01037396135369
H            1.64982190440482       -0.68282408544074       -1.49322203581631
H            0.41472636061502        1.44214253665038       -1.58920985398143
H            2.41840320314974        7.07711909347293        0.58656707411118
