78
 energy: -128.379871466552 gnorm: 0.000066525621 xtb: 6.7.1 (edcfbbe)
C            9.97417662654508       -2.59686304299574        2.63341303639466
C            8.60139614407531       -2.65019963966027        2.50476754797397
C            7.94501491683738       -1.79808778929170        1.62941479688182
C            8.65281554232349       -0.87066130647392        0.87547358974828
C           10.04917639377374       -0.84486010223941        0.99143098056624
C           10.69804478796809       -1.69523735799156        1.86668788690251
O           10.83530406315356       -0.00186760023330        0.24498269756579
C           10.20226833796949        0.84110794456432       -0.63455257824292
C           11.00246799887189        1.69271326889444       -1.37256200918901
C           10.43402025852328        2.59426063129824       -2.26080952458167
C            9.06139731400261        2.64653874125304       -2.39112787495112
C            8.25387589005240        1.79312528006629       -1.65437922407793
C            8.80874495696268        0.86545116804158       -0.78194488738420
N            8.02469447123743       -0.00326268672817       -0.02071861771729
C            6.62054553266842       -0.00656917823729       -0.15648773673118
C            6.03390782894998       -0.38960809668868       -1.35890337081963
C            4.66046167235502       -0.39137977761317       -1.49560707069942
C            3.83940267787931       -0.00883348457610       -0.43499327945168
C            2.37559923925938        0.00329840224663       -0.53177501143829
C            1.70679174142273        0.03511068539227       -1.78284334036853
C            0.34262018636807        0.03557969344518       -1.82188821148627
C           -0.37859891927266        0.01262399280289       -0.60707431139873
N           -1.71850875423060        0.00508493096997       -0.61968494734903
C           -2.37454743902997        0.00135409575788        0.52138546863582
C           -3.83838906636174       -0.00986366479039        0.42583688167930
C           -4.65764459559922       -0.40462825359130        1.48337539984254
C           -6.03124534391835       -0.40160764359689        1.34894836143634
C           -6.62000295692289       -0.00462277441181        0.15203635421711
N           -8.02431062173934        0.00017502678899        0.01903840342206
C           -8.65434307260991       -0.85598786426063       -0.88670494641509
C           -7.94783843759240       -1.77075906187250       -1.65716555821332
C           -8.60609119424928       -2.61143006749250       -2.54211360620929
C           -9.97952719989920       -2.55937417438298       -2.66412387753912
C          -10.70204961460602       -1.67098290561808       -1.88090372399089
C          -10.05127972854988       -0.83207905112700       -0.99601771622822
O          -10.83625155046435       -0.00256820297221       -0.23346444117007
C          -10.20158066502522        0.82781161959954        0.65674331787512
C          -11.00091664095997        1.66454684033608        1.41251655387463
C          -10.43103914101514        2.55363813085903        2.31229343402987
C           -9.05792410155608        2.60890849217719        2.43610473855423
C           -8.25130870765576        1.77022425684020        1.68168065105910
C           -8.80743543726537        0.85428665946799        0.79768347547730
C           -5.80985009193518        0.38128143439177       -0.91333663577793
C           -4.43903010603256        0.37542466449998       -0.77499366110988
C           -1.70568882732303        0.02603283938379        1.77261134971074
C           -0.34157353169437        0.02569276485026        1.81155986534025
C            0.37937068215512        0.00900516204426        0.59647624052130
N            1.71918862695737        0.00068684447789        0.60911526964140
C            4.43813343501966        0.36300497359624        0.77108820494771
C            5.80865455951650        0.36706871839616        0.91188829445197
H           10.48924076202649       -3.25515952348352        3.31505663216977
H            8.02570834722003       -3.35818604730559        3.08092724306556
H            6.87303701740011       -1.86084323346717        1.52643200217045
H           11.77308098118430       -1.63989313809171        1.92962947090416
H           12.07035639738376        1.63843381281053       -1.23335913383978
H           11.06684915870897        3.25348794824833       -2.83370504990423
H            8.60311863810056        3.35486658448061       -3.06417472601590
H            7.18132519542783        1.85517898785579       -1.75255621278154
H            6.66403208776457       -0.69437561630534       -2.18173724981219
H            4.23249951830574       -0.72253678277455       -2.42932613038574
H            2.27597914313394        0.07947574422827       -2.69800090649739
H           -0.20534242402137        0.06002731038355       -2.75182306564784
H           -4.22794240281695       -0.74656505307811        2.41240797175630
H           -6.65991081611682       -0.71614097921180        2.16922129603770
H           -6.87532316456311       -1.83284732196459       -1.55967150921205
H           -8.03129456146549       -3.30957365480471       -3.13102990906886
H          -10.49605484145531       -3.20870106150038       -3.35321947197671
H          -11.77749272319591       -1.61735845352316       -1.93812376113097
H          -12.06931022620032        1.60869749313982        1.27789598995418
H          -11.06316941120493        3.20115358818651        2.89914491547347
H           -8.59858225209279        3.30813194346832        3.11788881375255
H           -7.17849509242789        1.83478924527063        1.77518467497678
H           -6.26672845535743        0.68945220276093       -1.84227932406747
H           -3.80157327583693        0.67608133792557       -1.59117160253397
H           -2.27498944623846        0.06596268390042        2.68791006096482
H            0.20659082593951        0.04497062602859        2.74149335493890
H            3.79926624878716        0.65448591444008        1.58947177714384
H            6.26402863225399        0.66427790677322        1.84513421135405
