78
 energy: -128.380042084778 gnorm: 0.000055832266 xtb: 6.7.1 (edcfbbe)
C            9.93618579066893        2.88999655662760        2.34168111097603
C            8.56294895535687        2.76405934844283        2.39012463296072
C            7.91873535116527        1.80396661509124        1.62445632946874
C            8.63882088276639        0.96036052865004        0.78797969209543
C           10.03545377444504        1.07452696444947        0.77144490156540
C           10.67240533899475        2.03453487682468        1.53512267462245
O           10.83417555201225        0.24452919323147        0.02413914795763
C           10.21404796071208       -0.72056044453540       -0.72980164099797
C           11.02834964438498       -1.54625297531881       -1.48185059778882
C           10.47497856508724       -2.52512375713376       -2.29431260477900
C            9.10312226602361       -2.65722875516234       -2.36053001064102
C            8.28170731088853       -1.83274941951083       -1.60648278870436
C            8.82077863608421       -0.86860547008157       -0.76401305565831
N            8.02278776308573       -0.02010596309370        0.00638238054372
C            6.61892625255397       -0.15254543769738       -0.00143423953387
C            6.02210926136130       -1.32004689437301        0.46592868877529
C            4.64844424291292       -1.45340162976802        0.45515535000117
C            3.83817742549542       -0.42184595485712       -0.01795656304407
C            2.37472770528887       -0.51845318572433       -0.03715178797061
C            1.71185038040138       -1.77213379773596       -0.07677952032755
C            0.34784201006233       -1.81557783285916       -0.08566083810892
C           -0.37667048107864       -0.60279084793487       -0.05593271196399
N           -1.71696715083499       -0.62016424639997       -0.04908385107025
C           -2.37489011384127        0.51905577245067       -0.02704204368425
C           -3.83839373718078        0.42213371988871       -0.01086603140001
C           -4.64909095024853        1.44496934957116        0.48022363240952
C           -6.02273566747407        1.31142723651166        0.48755858280215
C           -6.61907621414650        0.15218304212440       -0.00032405674024
N           -8.02305174631866        0.01947767487508        0.00592934013824
C           -8.63911257508162       -0.96963033621917        0.77635842012399
C           -7.91845655098629       -1.82694681191314        1.59822646422583
C           -8.56284716894212       -2.79522410583006        2.35338042762762
C           -9.93665726012576       -2.91598968906117        2.30866341102331
C          -10.67323170826180       -2.04747911552775        1.51644796096446
C          -10.03615887679182       -1.07923780732374        0.76338914138893
O          -10.83501404343813       -0.23670363916928        0.03027989115871
C          -10.21442230658162        0.73432826409050       -0.71566263606731
C          -11.02836574999340        1.57041057210982       -1.45650688586439
C          -10.47426904773294        2.55628780362101       -2.26001839662749
C           -9.10222640369905        2.68532600423900       -2.32853591581438
C           -8.28111296582984        1.85046047558797       -1.58564897706831
C           -8.82084784954320        0.87867803225817       -0.75246776339371
C           -5.81630516338874       -0.87717678980868       -0.48684507596008
C           -4.44498136131361       -0.74232325349826       -0.48587381043563
C           -1.71184299312984        1.77324970583665       -0.03650892493561
C           -0.34785054129092        1.81683507971248       -0.04287474854125
C            0.37659211720056        0.60368842104264       -0.04129353101042
N            1.71687793962684        0.62096105719916       -0.03297333582506
C            4.44503617210860        0.75107686186159       -0.47122148248696
C            5.81635335132459        0.88553746458372       -0.46958040376213
H           10.44178485961735        3.63781689942270        2.93193690570039
H            7.97725395048318        3.40884983446401        3.02715470723622
H            6.84626392931127        1.70565857480118        1.68499207933401
H           11.74812659225778        2.09258374109009        1.48846278811016
H           12.09535150625334       -1.40273660600728       -1.42179128271772
H           11.11861676915602       -3.16645603353668       -2.87539054508137
H            8.65625258960848       -3.40064144636444       -3.00269017693495
H            7.21041167729373       -1.93487377718577       -1.68119250590154
H            6.64421010079799       -2.11721032209573        0.84603202591756
H            4.20857017785446       -2.35649414317918        0.85026774885244
H            2.28778638919971       -2.68323096717992       -0.12344648569930
H           -0.19782317120775       -2.74656882993199       -0.11915725940602
H           -4.20977735986809        2.34085768713772        0.89194197316890
H           -6.64527023259091        2.10181367056328        0.88088158560997
H           -6.84542594569752       -1.73295194878121        1.65566603298894
H           -7.97679686817418       -3.45048735147704        2.97930280738630
H          -10.44243187468535       -3.67000592285525        2.89082801770576
H          -11.74930365976816       -2.10152573877102        1.47323256932204
H          -12.09563932492708        1.42959706182668       -1.39483177136557
H          -11.11762330444967        3.20562439887642       -2.83246972036632
H           -8.65504329959510        3.43436339938169       -2.96391150534252
H           -7.20966938094533        1.95045598905510       -1.66156732542667
H           -6.27914314686609       -1.77587442465902       -0.86729569701521
H           -3.81339714504939       -1.53213530988270       -0.86050850927907
H           -2.28743241057629        2.68536890741539       -0.06209714126929
H            0.19788073360588        2.74832289189938       -0.05358136480080
H            3.81372454420492        1.54775645664475       -0.83150915800463
H            6.27941080177972        1.79075847365782       -0.83396072551312
