78
 energy: -128.328047000346 gnorm: 0.000070535605 xtb: 6.7.1 (edcfbbe)
C           10.01188403176257        2.14915336435103        2.97609013425541
C            8.64021290973379        1.99218551618281        3.03332128626823
C            7.97471989182813        1.27066210102496        2.05600311338335
C            8.67230071035052        0.69933447420464        0.99686878917350
C           10.06811410101220        0.84223417507381        0.96247922856065
C           10.72583297436650        1.56537639142522        1.94064395979849
O           10.83899820910656        0.27170140193757       -0.01743469651506
C           10.19617181993840       -0.44627890341827       -0.99254068790665
C           10.98169367871312       -1.01315134821743       -1.97943910491301
C           10.39652856499141       -1.73242254845836       -3.01042847604358
C            9.02203818777509       -1.86725643598697       -3.05469286762458
C            8.22933348034818       -1.30368904899630       -2.06848043627068
C            8.80130160404332       -0.60056366250220       -1.01335730861856
N            8.03602096682375       -0.02736838853120       -0.00369184434481
C            6.62751533894483       -0.18160933903377        0.00509043316963
C            6.06229645900778       -1.43617330786406        0.21638235645615
C            4.69353404989771       -1.59219563600407        0.21934534786791
C            3.84314048204613       -0.49718108923017        0.01831899438238
C            2.39963986650030       -0.60459571577282        0.01495873103901
C            1.69366110569006       -1.81457107469326        0.00390597335854
C            0.31946215231886       -1.82226119909065       -0.00552515549047
C           -0.39810957772022       -0.60440290935709        0.00587689572977
N           -1.70535249522568       -0.54738679072759        0.00003511390607
C           -2.39970912400739        0.60514584071308        0.02365665317325
C           -3.84320208631305        0.49764426505315        0.02553708882239
C           -4.69361351899824        1.58970311483362        0.24197604849924
C           -6.06236548041959        1.43366219801165        0.23703949598503
C           -6.62754697465502        0.18213874466899        0.00834334309749
N           -8.03604440560863        0.02797679202247       -0.00212515724230
C           -8.67202362787883       -0.71209408638647        0.98878426657046
C           -7.97403088187348       -1.29817542714877        2.03954034843250
C           -8.63924837072096       -2.03270600678298        3.00731455293353
C          -10.01102225309647       -2.18824796197059        2.94881191451036
C          -10.72535623187580       -1.59006494923165        1.92188174255898
C          -10.06790669593127       -0.85392507848823        0.95328521558098
O          -10.83914197149427       -0.26974008943625       -0.01828149544598
C          -10.19658949397726        0.46123006315894       -0.98387796159949
C          -10.98245284077178        1.04184965153892       -1.96247016752904
C          -10.39757130989695        1.77491852115375       -2.98386319185035
C           -9.02305692410769        1.90981695734631       -3.02706717223412
C           -8.23001414889577        1.33251086086438       -2.04910153776119
C           -8.80168399589888        0.61524385053767       -1.00339086582058
C           -5.79709280700708       -0.91587163835372       -0.20633158092225
C           -4.43112102296503       -0.75877563302332       -0.19073560381156
C           -1.69371549860746        1.81513956925499        0.03024715494100
C           -0.31951905527729        1.82293401333190        0.02100774130271
C            0.39808284042396        0.60505425959460        0.01470112337130
N            1.70533020129457        0.54818935207707        0.00808249699067
C            4.43109108753661        0.76212397863772       -0.18033011605124
C            5.79706647740827        0.91935067058688       -0.19397146197283
H           10.53210273457173        2.71380353327451        3.73349398605815
H            8.07535820452457        2.42904593810902        3.84229203985210
H            6.90542748980743        1.14336614107721        2.11517210166108
H           11.79830106081979        1.65587310595527        1.87544736844108
H           12.04978262423239       -0.87611070123792       -1.92447141424215
H           11.01647024235909       -2.17373160173384       -3.77464528066490
H            8.55391909912637       -2.41135772001608       -3.86043574492688
H            7.15654647661864       -1.40324413232499       -2.11744781812628
H            6.70869024718087       -2.28613805510369        0.38244492268288
H            4.28480650731123       -2.57438104054153        0.39867130045765
H            2.23195044176703       -2.74885061524570       -0.00907740424050
H           -0.23695752482549       -2.74595870879591       -0.01783378888860
H           -4.28491053325239        2.56931060613706        0.43494689113411
H           -6.70877322676111        2.28118658881713        0.41506284648299
H           -6.90464277641928       -1.17218396674060        2.09977635063414
H           -8.07408991356072       -2.48085395433745        3.80987453934184
H          -10.53102898874819       -2.76295004739631        3.69876449623135
H          -11.79790494891428       -1.67918533679690        1.85613329205629
H          -12.05056729248734        0.90450989740319       -1.90876871862502
H          -11.01776945631908        2.22688371555011       -3.74161822288927
H           -8.55518512466631        2.46470568800968       -3.82556318744394
H           -7.15721303230477        1.43232587297661       -2.09728723275214
H           -6.23704140278027       -1.88610847724029       -0.38680499954948
H           -3.78005599773216       -1.60325502678953       -0.35608111693175
H           -2.23195262772808        2.74953996688963        0.03088393982406
H            0.23690403041458        2.74670642296425        0.02221002117253
H            3.78004510566649        1.60887486781004       -0.33369132653829
H            6.23703180981368        1.89200276979832       -0.36090453560508
