  41
  -69.8322537000000       0.116782715967896      !
 C         -5.6110765027        1.8740339854       -0.0552928914
 O         -4.2137635297        1.7220643998       -0.0399221414
 C         -3.6945278901        0.4606253691        0.0047301087
 C         -4.4809804679       -0.7201325635        0.0435399258
 C         -3.8943251584       -2.0049510936        0.0993096377
 O         -4.4993598270       -3.0631547847        0.1358511362
 O         -2.5049369739       -2.0791643350        0.1133659625
 C         -1.7314730964       -0.9688287712        0.0612885071
 C         -0.3725028421       -1.1668006530        0.0638688846
 C          0.4672356491       -0.0294751226       -0.0007644833
 C         -0.0678566759        1.2812590730       -0.0114113366
 C         -1.4263996597        1.4868679195       -0.0071014430
 C         -2.3029829096        0.3423990690        0.0127363428
 C          1.0681834152        2.1723825926       -0.0167757074
 C          1.1988541944        3.5491413477       -0.0481550254
 C          2.4733254390        4.0954863571       -0.0775521717
 C          3.6044452567        3.2830891770       -0.0974920727
 C          3.4988550008        1.9030281250       -0.0685663519
 C          2.2267963709        1.3531966712       -0.0035581380
 N          1.8362958276        0.0271065151        0.0080443045
 C          2.6997927679       -1.0705356898       -0.0083365337
 C          2.4957596794       -2.1093871792       -0.9168903824
 C          3.3528492797       -3.1922081594       -0.9263340400
 C          4.4166754151       -3.2520683269       -0.0390923125
 C          4.6201603314       -2.2204683375        0.8648996860
 C          3.7688745430       -1.1332221783        0.8860149462
 H         -6.0722887702        1.4640861018        0.8489116364
 H         -5.7876108989        2.9481706183       -0.0931278318
 H         -6.0586701331        1.4035565626       -0.9366414576
 H         -5.5563209648       -0.6920590742        0.0358238214
 H          0.0199985190       -2.1673943761        0.1313047564
 H         -1.8655793472        2.4680369756       -0.0100963249
 H          0.3245931892        4.1812283742       -0.0559175250
 H          2.5941824956        5.1679257299       -0.0988335525
 H          4.5826444726        3.7371298948       -0.1409568982
 H          4.3794198743        1.2801239022       -0.1079398465
 H          1.6821188959       -2.0450576186       -1.6229897886
 H          3.1929864480       -3.9920719477       -1.6333159969
 H          5.0833730070       -4.1004126950       -0.0501756847
 H          5.4423935656       -2.2678521994        1.5629317346
 H          3.9056697675       -0.3423781948        1.6080294553
  41
  -69.8322435300000       0.115532657415649      !
 C         -5.6129165167        1.8711220378        0.0687386994
 O         -4.2146667385        1.7231927594        0.0662309241
 C         -3.6923491777        0.4627124184        0.1014261861
 C         -4.4767708201       -0.7186621748        0.1644621470
 C         -3.8882492993       -2.0036124540        0.1852459625
 O         -4.4922754271       -3.0622485256        0.2343816271
 O         -2.5005325890       -2.0781092860        0.1466509967
 C         -1.7284075697       -0.9663822904        0.0946119240
 C         -0.3703597317       -1.1646038339        0.0565656523
 C          0.4689239547       -0.0261769654        0.0093288356
 C         -0.0676113871        1.2828845294       -0.0439831759
 C         -1.4260274733        1.4881800851       -0.0113749989
 C         -2.3010840181        0.3452645778        0.0702409243
 C          1.0663850013        2.1711536919       -0.1450672480
 C          1.1972262309        3.5467532580       -0.2080319783
 C          2.4711296631        4.0914776311       -0.2737887991
 C          3.6029325867        3.2800830622       -0.2561335542
 C          3.4975165559        1.9012195787       -0.1893189920
 C          2.2244686896        1.3510270338       -0.1575351334
 N          1.8361482271        0.0279324006       -0.0622117092
 C          2.6994674589       -1.0695431559       -0.0252345892
 C          3.7179838774       -1.1911004281       -0.9709489942
 C          4.5660958267       -2.2803182597       -0.9312083935
 C          4.4096733309       -3.2547882918        0.0427281145
 C          3.3968712091       -3.1355744796        0.9822637774
 C          2.5432391430       -2.0503919793        0.9545741903
 H         -5.7930590184        2.9441384478        0.0210105299
 H         -6.0710606553        1.3888484195       -0.8005317869
 H         -6.0597027234        1.4706440735        0.9842443781
 H         -5.5516490774       -0.6914190787        0.1961593531
 H          0.0221789545       -2.1673503799        0.0433691375
 H         -1.8662960042        2.4679046293       -0.0561099265
 H          0.3241007481        4.1804258733       -0.2005408298
 H          2.5918577417        5.1627956807       -0.3273563712
 H          4.5818260405        3.7334154903       -0.2895013445
 H          4.3798362340        1.2807297906       -0.1511410032
 H          3.8141412305       -0.4468057803       -1.7470261109
 H          5.3475768861       -2.3748365777       -1.6701122150
 H          5.0734176991       -4.1051532219        0.0680042036
 H          3.2753598374       -3.8904747637        1.7441116171
 H          1.7699715185       -1.9380816709        1.6991646800
  41
  -69.8322408800000       0.115209132679887      !
 C         -5.6126614602        1.8745343715        0.0500502161
 O         -4.2145472437        1.7248435576        0.0536489162
 C         -3.6938097129        0.4638684905        0.0974632570
 C         -4.4791884210       -0.7162342252        0.1695366254
 C         -3.8920387875       -2.0016929595        0.1952073363
 O         -4.4969315296       -3.0592225540        0.2541404614
 O         -2.5041519026       -2.0778837682        0.1467823244
 C         -1.7311185566       -0.9671161659        0.0949168643
 C         -0.3729512287       -1.1665332344        0.0571483803
 C          0.4672618808       -0.0289256897        0.0084966387
 C         -0.0684498049        1.2804955574       -0.0440573689
 C         -1.4266899774        1.4870768855       -0.0115916611
 C         -2.3025600324        0.3450024650        0.0686875254
 C          1.0657049662        2.1685367297       -0.1427320431
 C          1.1965334956        3.5442882638       -0.2037444496
 C          2.4705620815        4.0889195744       -0.2670375181
 C          3.6021926398        3.2771372498       -0.2493643085
 C          3.4966374068        1.8982798324       -0.1851191291
 C          2.2234666121        1.3480610436       -0.1550806578
 N          1.8345680889        0.0249474182       -0.0626496177
 C          2.7000561005       -1.0710665066       -0.0274910397
 C          3.7172845442       -1.1886323992       -0.9750185153
 C          4.5704710140       -2.2739631626       -0.9366700640
 C          4.4203069835       -3.2488025222        0.0378579001
 C          3.4081503612       -3.1341247815        0.9786042289
 C          2.5494250587       -2.0528072220        0.9519895066
 H         -6.0636991598        1.4796573123        0.9657987869
 H         -5.7911828909        2.9475327656       -0.0041490736
 H         -6.0678194225        1.3880488572       -0.8184290931
 H         -5.5538602924       -0.6875130122        0.2075030362
 H          0.0181209562       -2.1699099139        0.0452862335
 H         -1.8657077079        2.4673854985       -0.0557819527
 H          0.3229972141        4.1773727046       -0.1964578539
 H          2.5911612783        5.1603508201       -0.3185359735
 H          4.5809578325        3.7309274917       -0.2805815517
 H          4.3786985260        1.2773690736       -0.1470306910
 H          3.8094480335       -0.4442749407       -1.7514999441
 H          5.3510012409       -2.3652821258       -1.6769564194
 H          5.0883722665       -4.0958008010        0.0624561476
 H          3.2909139454       -3.8894058209        1.7408058870
 H          1.7760224886       -1.9453193597        1.6970410337
  41
  -69.8322382300000       0.114886513906620      !
 C         -5.6049928602        1.8783873604        0.2181891429
 O         -4.2095179366        1.7265716843        0.1333965971
 C         -3.6909128865        0.4640263709        0.1223616760
 C         -4.4770188141       -0.7164586420        0.1706030221
 C         -3.8913530628       -2.0030009868        0.1490615940
 O         -4.4971961265       -3.0612453930        0.1777288643
 O         -2.5043436809       -2.0793141864        0.0919079415
 C         -1.7304491999       -0.9684588145        0.0519208292
 C         -0.3727545831       -1.1676259864        0.0047904381
 C          0.4675303959       -0.0291708987       -0.0284107649
 C         -0.0681805632        1.2804548481       -0.0717588332
 C         -1.4259175560        1.4871174999       -0.0279637598
 C         -2.3010794736        0.3443412496        0.0555223815
 C          1.0663623168        2.1686291700       -0.1670891301
 C          1.1959311789        3.5446010244       -0.2239560357
 C          2.4695637730        4.0906189248       -0.2832898143
 C          3.6014516850        3.2795270221       -0.2647063825
 C          3.4969654070        1.9003159653       -0.2044583322
 C          2.2243961383        1.3485030917       -0.1798766839
 N          1.8351946353        0.0247187774       -0.0936365698
 C          2.6983221555       -1.0713376973       -0.0288019246
 C          3.7417163564       -1.1999833168       -0.9459856413
 C          4.5929088325       -2.2850813777       -0.8709754885
 C          4.4144423907       -3.2495973127        0.1091209224
 C          3.3753621714       -3.1248507502        1.0188771218
 C          2.5192203449       -2.0433002430        0.9562978771
 H         -6.1121622378        1.4359939403       -0.6449819117
 H         -6.0030098486        1.4394382806        1.1384875114
 H         -5.7817619741        2.9529797495        0.2267893722
 H         -5.5513320529       -0.6884173154        0.2161418259
 H          0.0190052209       -2.1703831773       -0.0243632728
 H         -1.8658901490        2.4673861990       -0.0607957038
 H          0.3217016960        4.1766808481       -0.2163437987
 H          2.5893638839        5.1622616728       -0.3323836719
 H          4.5800738272        3.7340573970       -0.2931974224
 H          4.3799897675        1.2809454951       -0.1656599153
 H          3.8566016908       -0.4650104577       -1.7282931124
 H          5.3949366660       -2.3843283967       -1.5869062625
 H          5.0811924792       -4.0963434438        0.1621503228
 H          3.2347454374       -3.8722786892        1.7848036230
 H          1.7249344343       -1.9274278793        1.6776446749
  41
  -69.8322369000000       0.114724936454079      !
 C         -5.6112166478        1.8699040124       -0.1259934535
 O         -4.2138951130        1.7206336209       -0.0760407246
 C         -3.6944361583        0.4601558943       -0.0094468653
 C         -4.4808080709       -0.7205625199        0.0332661914
 C         -3.8939176534       -2.0039312540        0.1163616943
 O         -4.4999134650       -3.0613155170        0.1655284122
 O         -2.5056800763       -2.0780936232        0.1428959699
 C         -1.7316289727       -0.9681379978        0.0827369611
 C         -0.3729516599       -1.1662130434        0.0908202773
 C          0.4672696679       -0.0294556289        0.0195567850
 C         -0.0677939738        1.2812332497        0.0032955493
 C         -1.4262834565        1.4869235046       -0.0000004331
 C         -2.3031293110        0.3426838782        0.0182261326
 C          1.0684703359        2.1721653180       -0.0047797288
 C          1.1986840474        3.5488097045       -0.0404387041
 C          2.4729642582        4.0955781852       -0.0722029355
 C          3.6040355866        3.2833416949       -0.0904983795
 C          3.4987153236        1.9032663157       -0.0583278861
 C          2.2270233572        1.3530344882        0.0095686667
 N          1.8364074829        0.0266714908        0.0242142199
 C          2.6991886775       -1.0710169184       -0.0053454099
 C          2.4814124632       -2.1067896739       -0.9147304862
 C          3.3393926784       -3.1883534306       -0.9434208676
 C          4.4186594767       -3.2501305775       -0.0749371947
 C          4.6351384813       -2.2226137638        0.8306199358
 C          3.7824380055       -1.1369139880        0.8715765872
 H         -6.0373865954        1.3834229381       -1.0092582168
 H         -6.0921392075        1.4749099185        0.7745248476
 H         -5.7882336988        2.9429380103       -0.1863469272
 H         -5.5559747817       -0.6937612269        0.0131763885
 H          0.0198549121       -2.1659563767        0.1686711260
 H         -1.8652345107        2.4681755582       -0.0099404814
 H          0.3243392683        4.1807386084       -0.0492940164
 H          2.5932716092        5.1679904309       -0.0968834242
 H          4.5821863146        3.7371775814       -0.1365481271
 H          4.3797046919        1.2811237108       -0.0983926345
 H          1.6565713247       -2.0400020468       -1.6075192033
 H          3.1691025060       -3.9850110024       -1.6515951992
 H          5.0869893326       -4.0968666406       -0.1018596029
 H          5.4684227581       -2.2723979755        1.5153367646
 H          3.9281546580       -0.3514722100        1.5976989264
  41
  -69.8322300000000       0.113890317945774      !
 C         -5.6109906101        1.8676614935       -0.1432768484
 O         -4.2141711923        1.7200825945       -0.0802051708
 C         -3.6939567153        0.4598587465       -0.0094867226
 C         -4.4800565902       -0.7210781627        0.0365975987
 C         -3.8932346238       -2.0041691463        0.1215433864
 O         -4.4989100544       -3.0615007124        0.1750210406
 O         -2.5048264065       -2.0781314687        0.1449152394
 C         -1.7310691990       -0.9679578591        0.0841335416
 C         -0.3723452909       -1.1656474167        0.0901480309
 C          0.4675292181       -0.0286982606        0.0183587771
 C         -0.0675927754        1.2820090444        0.0045354179
 C         -1.4262516627        1.4870181800        0.0026791336
 C         -2.3028013279        0.3426872790        0.0197213773
 C          1.0685532537        2.1730345686       -0.0022083398
 C          1.1990354493        3.5497366774       -0.0339939272
 C          2.4735316751        4.0961252533       -0.0659815681
 C          3.6044180487        3.2838144522       -0.0886832337
 C          3.4988452652        1.9036512036       -0.0601576303
 C          2.2270635836        1.3537049290        0.0084369481
 N          1.8366372207        0.0274896337        0.0211059111
 C          2.6989999419       -1.0705020949       -0.0083854207
 C          2.4812745777       -2.1061180473       -0.9179692028
 C          3.3378293329       -3.1887515733       -0.9454233655
 C          4.4159602523       -3.2515336014       -0.0755907490
 C          4.6330100486       -2.2238519415        0.8294980170
 C          3.7814651832       -1.1371734166        0.8692128987
 H         -5.7881112989        2.9397312751       -0.2137122933
 H         -6.0291231030        1.3735734036       -1.0263328988
 H         -6.0993433928        1.4790703587        0.7559000440
 H         -5.5553853143       -0.6943318394        0.0189155162
 H          0.0209567139       -2.1653065676        0.1666781293
 H         -1.8656458778        2.4681412312       -0.0056500429
 H          0.3248304756        4.1818790654       -0.0389268306
 H          2.5941051473        5.1686218126       -0.0868801069
 H          4.5824701084        3.7378282849       -0.1349247667
 H          4.3794617599        1.2812185819       -0.1036091845
 H          1.6573973627       -2.0386115598       -1.6119122910
 H          3.1677350606       -3.9849904362       -1.6540801383
 H          5.0836381508       -4.0987790652       -0.1014440793
 H          5.4656182873       -2.2743345220        1.5149204626
 H          3.9266806600       -0.3518264904        1.5955895303
  41
  -69.8322146200000       0.112051750802992      !
 C         -5.6094667464        1.8634335554       -0.1768274373
 O         -4.2130452984        1.7178792040       -0.1002742825
 C         -3.6925039595        0.4590338206       -0.0151155880
 C         -4.4780895509       -0.7217157065        0.0397993786
 C         -3.8905028799       -2.0036137344        0.1381169315
 O         -4.4959971879       -3.0603949836        0.2033694433
 O         -2.5021980656       -2.0768460145        0.1608179479
 C         -1.7290689775       -0.9666961239        0.0937332815
 C         -0.3702989435       -1.1638546181        0.0999455331
 C          0.4687072962       -0.0266294019        0.0240045555
 C         -0.0666126543        1.2838360419        0.0070837036
 C         -1.4253350883        1.4884580146        0.0018971487
 C         -2.3012872842        0.3433813185        0.0209558283
 C          1.0697912054        2.1747072686        0.0007190440
 C          1.2004024657        3.5513971095       -0.0319120542
 C          2.4748381422        4.0980318341       -0.0596665821
 C          3.6059405599        3.2857669273       -0.0772508710
 C          3.5004089846        1.9056400500       -0.0487106552
 C          2.2284842599        1.3554919862        0.0151437527
 N          1.8377508592        0.0293957774        0.0272821291
 C          2.6977091180       -1.0703505104       -0.0110036865
 C          3.7815059512       -1.1474002849        0.8639977618
 C          4.6285160750       -2.2372894128        0.8143610762
 C          4.4061579202       -3.2570514567       -0.0984572563
 C          3.3270111321       -3.1833358455       -0.9660759763
 C          2.4743368655       -2.0979849662       -0.9282239601
 H         -6.0191374751        1.3598263240       -1.0581962918
 H         -6.1051089127        1.4837584198        0.7221638052
 H         -5.7872202548        2.9347334186       -0.2599284706
 H         -5.5533203279       -0.6956822338        0.0217520918
 H          0.0238034678       -2.1629134514        0.1803505773
 H         -1.8651580277        2.4692559248       -0.0104177302
 H          0.3262442080        4.1835690891       -0.0408066966
 H          2.5952952539        5.1705073240       -0.0808233095
 H          4.5842145106        3.7397281136       -0.1192117722
 H          4.3813080887        1.2832718051       -0.0880105334
 H          3.9316074100       -0.3681867409        1.5958994273
 H          5.4618024473       -2.2966479341        1.4982090529
 H          5.0702143241       -4.1068694315       -0.1321442153
 H          3.1528344087       -3.9732669645       -1.6807658650
 H          1.6487593623       -2.0219435310       -1.6191664417
  41
  -69.8322033800000       0.110726889591916      !
 C         -5.6090715979        1.8618272667        0.2008493430
 O         -4.2131144261        1.7166183917        0.1147926426
 C         -3.6928624810        0.4578461744        0.0261027737
 C         -4.4784518750       -0.7230553254       -0.0248403062
 C         -3.8912369543       -2.0046736934       -0.1291251488
 O         -4.4968332874       -3.0614420730       -0.1937181339
 O         -2.5030393030       -2.0776353169       -0.1596017631
 C         -1.7297316730       -0.9674966818       -0.0942741710
 C         -0.3709690840       -1.1644425201       -0.1051801003
 C          0.4681340360       -0.0270921448       -0.0312844474
 C         -0.0673689587        1.2833297555       -0.0134817229
 C         -1.4260739396        1.4877350063       -0.0036688315
 C         -2.3018193713        0.3424749984       -0.0182935917
 C          1.0689165484        2.1743908853       -0.0098190173
 C          1.1993034979        3.5510890495        0.0226532644
 C          2.4736724267        4.0979659785        0.0482850836
 C          3.6049398999        3.2859095945        0.0640058556
 C          3.4996010623        1.9057585866        0.0355297638
 C          2.2276802698        1.3553486698       -0.0262682541
 N          1.8371125023        0.0290854474       -0.0376527842
 C          2.6977763330       -1.0699002440        0.0049164822
 C          2.4742522340       -2.0945662073        0.9254546699
 C          3.3291560212       -3.1779523665        0.9696561811
 C          4.4108571635       -3.2525809852        0.1052848581
 C          4.6327855229       -2.2362775777       -0.8115464553
 C          3.7833838174       -1.1485287824       -0.8676772048
 H         -6.1110565327        1.4827926425       -0.6948007266
 H         -6.0126176302        1.3579109691        1.0847142322
 H         -5.7865447284        2.9329001059        0.2856370001
 H         -5.5535607666       -0.6972159927       -0.0005558760
 H          0.0231563356       -2.1632919594       -0.1876436738
 H         -1.8661035816        2.4684833541        0.0094397943
 H          0.3250588740        4.1831008223        0.0324293698
 H          2.5939705296        5.1704858951        0.0688511598
 H          4.5832449844        3.7400159059        0.1036454330
 H          4.3807284502        1.2836811291        0.0728835910
 H          1.6471386902       -2.0173115545        1.6144683899
 H          3.1550244036       -3.9653530805        1.6871686090
 H          5.0768799987       -4.1006089787        0.1443365754
 H          5.4676684094       -2.2966810099       -1.4933823184
 H          3.9331830389       -0.3722122190       -1.6026535055
  41
  -69.8319667000000       8.619508523518588E-002 !
 C         -5.5960719657        1.8629159315       -0.3121118896
 O         -4.2084593738        1.7183636754       -0.1361556398
 C         -3.6922840008        0.4592797752       -0.0301964460
 C         -4.4790441196       -0.7215196144       -0.0076993416
 C         -3.8963576335       -2.0023054579        0.1297021324
 O         -4.5042508120       -3.0584847526        0.1796492161
 O         -2.5100119913       -2.0755392914        0.2080697399
 C         -1.7337866021       -0.9669892998        0.1467305557
 C         -0.3754820807       -1.1657496639        0.1688401821
 C          0.4660456747       -0.0304310922        0.0844555762
 C         -0.0684070109        1.2806686671        0.0700092347
 C         -1.4264564441        1.4874673099        0.0611607584
 C         -2.3035211997        0.3432918571        0.0578980901
 C          1.0680890495        2.1708544024        0.0425910987
 C          1.1971522467        3.5473481130        0.0001878615
 C          2.4699080079        4.0939634670       -0.0698880914
 C          3.5993055994        3.2811661065       -0.1213379108
 C          3.4948079325        1.9012672924       -0.0791508184
 C          2.2260430949        1.3512543579        0.0317744173
 N          1.8352399490        0.0243927738        0.0610553555
 C          2.6971515211       -1.0718878085       -0.0002810281
 C          2.4416928604       -2.1125032164       -0.8948026017
 C          3.3021680355       -3.1902418059       -0.9605126614
 C          4.4233227474       -3.2430215920       -0.1461125739
 C          4.6772301051       -2.2115136174        0.7451848899
 C          3.8209170208       -1.1309690555        0.8251604538
 H         -6.1565779368        1.4678476995        0.5408102278
 H         -5.7700305579        2.9352245568       -0.3899420652
 H         -5.9372963171        1.3733221835       -1.2299600216
 H         -5.5522590377       -0.6961841731       -0.0762752225
 H          0.0159489987       -2.1647225917        0.2618183910
 H         -1.8648987745        2.4689145535        0.0491470862
 H          0.3228862323        4.1792141426        0.0155456995
 H          2.5896394314        5.1662347399       -0.1015298065
 H          4.5755929339        3.7340928231       -0.2025432759
 H          4.3743577522        1.2795304941       -0.1461215579
 H          1.5853199980       -2.0520162858       -1.5486547164
 H          3.1017102611       -3.9902111187       -1.6569599851
 H          5.0959058225       -4.0846502839       -0.2054724757
 H          5.5448414796       -2.2530277960        1.3864056651
 H          3.9977833831       -0.3428060408        1.5412315113
