  41
        -69.83225370
 C         -5.6110765027        1.8740339854       -0.0552928914
 O         -4.2137635297        1.7220643998       -0.0399221414
 C         -3.6945278901        0.4606253691        0.0047301087
 C         -4.4809804679       -0.7201325635        0.0435399258
 C         -3.8943251584       -2.0049510936        0.0993096377
 O         -4.4993598270       -3.0631547847        0.1358511362
 O         -2.5049369739       -2.0791643350        0.1133659625
 C         -1.7314730964       -0.9688287712        0.0612885071
 C         -0.3725028421       -1.1668006530        0.0638688846
 C          0.4672356491       -0.0294751226       -0.0007644833
 C         -0.0678566759        1.2812590730       -0.0114113366
 C         -1.4263996597        1.4868679195       -0.0071014430
 C         -2.3029829096        0.3423990690        0.0127363428
 C          1.0681834152        2.1723825926       -0.0167757074
 C          1.1988541944        3.5491413477       -0.0481550254
 C          2.4733254390        4.0954863571       -0.0775521717
 C          3.6044452567        3.2830891770       -0.0974920727
 C          3.4988550008        1.9030281250       -0.0685663519
 C          2.2267963709        1.3531966712       -0.0035581380
 N          1.8362958276        0.0271065151        0.0080443045
 C          2.6997927679       -1.0705356898       -0.0083365337
 C          2.4957596794       -2.1093871792       -0.9168903824
 C          3.3528492797       -3.1922081594       -0.9263340400
 C          4.4166754151       -3.2520683269       -0.0390923125
 C          4.6201603314       -2.2204683375        0.8648996860
 C          3.7688745430       -1.1332221783        0.8860149462
 H         -6.0722887702        1.4640861018        0.8489116364
 H         -5.7876108989        2.9481706183       -0.0931278318
 H         -6.0586701331        1.4035565626       -0.9366414576
 H         -5.5563209648       -0.6920590742        0.0358238214
 H          0.0199985190       -2.1673943761        0.1313047564
 H         -1.8655793472        2.4680369756       -0.0100963249
 H          0.3245931892        4.1812283742       -0.0559175250
 H          2.5941824956        5.1679257299       -0.0988335525
 H          4.5826444726        3.7371298948       -0.1409568982
 H          4.3794198743        1.2801239022       -0.1079398465
 H          1.6821188959       -2.0450576186       -1.6229897886
 H          3.1929864480       -3.9920719477       -1.6333159969
 H          5.0833730070       -4.1004126950       -0.0501756847
 H          5.4423935656       -2.2678521994        1.5629317346
 H          3.9056697675       -0.3423781948        1.6080294553
  41
        -69.83196670
 C         -5.5960719657        1.8629159315       -0.3121118896
 O         -4.2084593738        1.7183636754       -0.1361556398
 C         -3.6922840008        0.4592797752       -0.0301964460
 C         -4.4790441196       -0.7215196144       -0.0076993416
 C         -3.8963576335       -2.0023054579        0.1297021324
 O         -4.5042508120       -3.0584847526        0.1796492161
 O         -2.5100119913       -2.0755392914        0.2080697399
 C         -1.7337866021       -0.9669892998        0.1467305557
 C         -0.3754820807       -1.1657496639        0.1688401821
 C          0.4660456747       -0.0304310922        0.0844555762
 C         -0.0684070109        1.2806686671        0.0700092347
 C         -1.4264564441        1.4874673099        0.0611607584
 C         -2.3035211997        0.3432918571        0.0578980901
 C          1.0680890495        2.1708544024        0.0425910987
 C          1.1971522467        3.5473481130        0.0001878615
 C          2.4699080079        4.0939634670       -0.0698880914
 C          3.5993055994        3.2811661065       -0.1213379108
 C          3.4948079325        1.9012672924       -0.0791508184
 C          2.2260430949        1.3512543579        0.0317744173
 N          1.8352399490        0.0243927738        0.0610553555
 C          2.6971515211       -1.0718878085       -0.0002810281
 C          2.4416928604       -2.1125032164       -0.8948026017
 C          3.3021680355       -3.1902418059       -0.9605126614
 C          4.4233227474       -3.2430215920       -0.1461125739
 C          4.6772301051       -2.2115136174        0.7451848899
 C          3.8209170208       -1.1309690555        0.8251604538
 H         -6.1565779368        1.4678476995        0.5408102278
 H         -5.7700305579        2.9352245568       -0.3899420652
 H         -5.9372963171        1.3733221835       -1.2299600216
 H         -5.5522590377       -0.6961841731       -0.0762752225
 H          0.0159489987       -2.1647225917        0.2618183910
 H         -1.8648987745        2.4689145535        0.0491470862
 H          0.3228862323        4.1792141426        0.0155456995
 H          2.5896394314        5.1662347399       -0.1015298065
 H          4.5755929339        3.7340928231       -0.2025432759
 H          4.3743577522        1.2795304941       -0.1461215579
 H          1.5853199980       -2.0520162858       -1.5486547164
 H          3.1017102611       -3.9902111187       -1.6569599851
 H          5.0959058225       -4.0846502839       -0.2054724757
 H          5.5448414796       -2.2530277960        1.3864056651
 H          3.9977833831       -0.3428060408        1.5412315113
