  89
       -139.65887720
 C         -0.2357320434        2.8010124847       -2.2338467085
 C          0.2854784035        3.8607580912       -1.6310796284
 C          1.6595505775        3.9457128461       -1.1469053810
 C          1.9641688505        4.7690287090       -0.0635051771
 C          3.2393872036        4.8029978160        0.4653873319
 C          4.2572863122        4.0444872145       -0.0996593209
 C          5.6324404279        4.0238730257        0.5250463443
 O          6.3367957215        2.8114229699        0.3343942489
 C          5.6805521694        1.6371237440        0.5761268846
 C          4.5061962483        1.5464987292        1.3306048487
 C          3.8181229263        0.3550625997        1.4386342394
 C          4.3189527889       -0.7541907537        0.7826584434
 C          5.5677157800       -0.7075906384        0.1309797263
 C          6.2453164922        0.4952810994        0.0180854199
 C          5.8308521123       -2.0432532861       -0.3342107536
 C          6.8818409602       -2.6169300541       -1.0358738850
 C          6.8096515842       -3.9577229997       -1.3597526143
 C          5.6991329112       -4.7199769303       -1.0083359248
 C          4.6386201962       -4.1708797564       -0.3113766979
 C          4.7187932423       -2.8325035518        0.0394121582
 N          3.8043969381       -2.0409401495        0.7137444647
 C          2.4944883113       -2.3824029897        1.0387142756
 C          2.2156587411       -3.5112699697        1.8003986105
 C          0.9057527766       -3.8329861380        2.1117131959
 C         -0.1399717181       -3.0278983342        1.6975429601
 C          0.1098362255       -1.8917475224        0.9330952786
 N         -0.9415463671       -1.0817897241        0.5103782921
 C         -1.0430606075        0.2895140056        0.6752041491
 C         -0.1801218620        1.1733771356        1.3034103453
 C         -0.5548262697        2.5001190687        1.3816903573
 C         -1.7672315424        2.9437387594        0.8613558711
 C         -2.6402334876        2.0664144307        0.2512672665
 C         -2.2815143471        0.7285711147        0.1564690813
 C         -2.9453670229       -0.4336654181       -0.3648049812
 C         -4.1597959968       -0.6087655041       -1.0176358285
 C         -4.5077535866       -1.8863334670       -1.4249339091
 O         -5.6603518982       -2.2111991867       -2.0837094564
 C         -6.5402200985       -1.1727306217       -2.4501846712
 C         -7.2328110115       -0.5044652656       -1.2877406966
 C         -7.6548328213        0.8156491120       -1.3821298782
 C         -8.3095753361        1.4166869153       -0.3263788450
 C         -8.5637463826        0.7205300284        0.8567498167
 C         -9.2674671167        1.4004430094        1.9371542734
 C         -9.7095540881        0.8540640957        3.0637084590
 C         -8.1269398397       -0.6016093517        0.9440335236
 C         -7.4757864002       -1.2040882733       -0.1128408987
 C         -3.6457027368       -2.9669495576       -1.1846183994
 C         -2.4395744715       -2.8045430650       -0.5387039637
 C         -2.0953369854       -1.5290073648       -0.1159863474
 C          1.4331179723       -1.5806773053        0.5766674135
 C          1.6744750521       -0.5462444854       -0.3546289619
 N          1.8438760352        0.2357438930       -1.1764056457
 C          3.9750609659        3.2791078700       -1.2245528741
 C          2.6936896367        3.2181427861       -1.7321719100
 H          0.3355508633        1.9038620997       -2.3966282982
 H         -1.2636804613        2.7811297977       -2.5539212074
 H         -0.3320869809        4.7282451126       -1.4317972983
 H          1.1821346332        5.3636265486        0.3883105377
 H          3.4485092946        5.4186766640        1.3302586616
 H          5.5598376714        4.2604890001        1.5971365865
 H          6.2744440126        4.7803343320        0.0582030037
 H          4.1101842110        2.4164025844        1.8276905374
 H          2.9128253884        0.3050811553        2.0244987295
 H          7.1813424889        0.5707257745       -0.5112824609
 H          7.7345780116       -2.0208686495       -1.3225108242
 H          7.6192135606       -4.4236262914       -1.9013155722
 H          5.6622529420       -5.7622939165       -1.2886299706
 H          3.7741695193       -4.7675874562       -0.0615110025
 H          3.0315806196       -4.1186648485        2.1595365039
 H          0.6995745677       -4.7088776358        2.7079985137
 H         -1.1560817564       -3.2601497291        1.9758643523
 H          0.7549536926        0.8457736799        1.7294052695
 H          0.1080337008        3.2043194456        1.8609892419
 H         -2.0284440428        3.9877968076        0.9464209319
 H         -3.5889575988        2.4049332173       -0.1373876456
 H         -4.7989986865        0.2417829307       -1.1880857922
 H         -7.2892987219       -1.6658679592       -3.0816724040
 H         -6.0181013154       -0.4244012941       -3.0634153758
 H         -7.4684281981        1.3737213473       -2.2895811185
 H         -8.6340170514        2.4440210524       -0.4166154554
 H         -9.4426013950        2.4554467354        1.7640183342
 H        -10.2296363558        1.4392286715        3.8026654523
 H         -9.5868196944       -0.1904175977        3.2932803104
 H         -8.2943303156       -1.1658078834        1.8480510966
 H         -7.1440395517       -2.2289223826       -0.0324479875
 H         -3.9548049172       -3.9398846225       -1.5322837864
 H         -1.7837572885       -3.6479100390       -0.3847794699
 H          4.7633876513        2.7091501431       -1.6935261675
 H          2.4924879803        2.6018268033       -2.5928332049
