  93
       -147.88866810
 N          1.9263113028        5.9509629964       -1.2062291555
 C          1.8211984262        4.8279851166       -0.9883686586
 C          1.7035645037        3.4499212747       -0.7089311030
 C          0.4485152510        2.8725321387       -0.6214785823
 C          0.3284464699        1.4963608359       -0.3534528776
 C         -0.9270228013        0.8561992003       -0.2603906082
 N         -2.0825799282        1.5789112611       -0.2883923891
 C         -3.2068672019        0.9358467556       -0.1516329632
 N         -4.3777017270        1.6600667560       -0.1215516357
 C         -4.4800457834        3.0070173870        0.2005630171
 C         -3.4916352971        3.9117219491        0.5580756712
 C         -3.8747879845        5.2125426901        0.8342383562
 C         -5.2088246342        5.6033586319        0.7752272599
 C         -6.2021767322        4.6984286854        0.4406461623
 C         -5.8391044018        3.3919944547        0.1548177921
 C         -6.5886451042        2.2192729437       -0.2161003612
 C         -7.9391338454        1.9844276018       -0.4180585632
 C         -8.3417408302        0.7133606207       -0.7916858783
 C         -7.4122069230       -0.3053650534       -0.9744436090
 C         -6.0583187587       -0.0903729980       -0.7849128340
 C         -5.6515596186        1.1731827171       -0.3822530705
 N         -3.3210140936       -0.4052781639       -0.0410611637
 C         -2.1497303922       -1.0717772507       -0.0662044319
 N         -2.2035423303       -2.4459478534       -0.0123190420
 C         -3.2433533940       -3.2154296550        0.4905772318
 C         -4.4201140312       -2.8231582783        1.1105974544
 C         -5.2928553523       -3.8135697944        1.5254814233
 C         -4.9985469499       -5.1618919304        1.3476757553
 C         -3.8133501421       -5.5592205172        0.7533863878
 C         -2.9269566634       -4.5835540640        0.3247235102
 C         -1.6357946632       -4.6362903805       -0.3113489327
 C         -0.8251329172       -5.6793280382       -0.7316095521
 C          0.3744425521       -5.3766470316       -1.3522656722
 C          0.7622557675       -4.0564894155       -1.5573813516
 C         -0.0276208517       -3.0008398284       -1.1383351591
 C         -1.2227529564       -3.2985699357       -0.5022424812
 N         -0.9843730317       -0.4989895332       -0.1344797026
 C          1.5146742828        0.7457581093       -0.1668470166
 C          2.7572919047        1.3281257539       -0.2342442805
 Si         4.3244326771        0.3159049137        0.1245008267
 C          5.5748358312        0.6714416848       -1.2549776176
 C          6.9062381101        0.9555190119       -0.9700754616
 C          7.8147636979        1.1975689280       -1.9850465352
 C          7.4039032786        1.1604210745       -3.3069189563
 C          6.0805884104        0.8824489957       -3.6076225719
 C          5.1768432569        0.6427507033       -2.5889209270
 C          5.0441038170        0.8180941331        1.8050872699
 C          4.7099940121        2.0178408401        2.4244314797
 C          5.2713043865        2.3744550281        3.6377027770
 C          6.1807834552        1.5324413341        4.2549134702
 C          6.5204154127        0.3309208665        3.6549801577
 C          5.9544844748       -0.0208404367        2.4435235530
 C          3.9221435637       -1.5349976353        0.1953171119
 C          4.4718696227       -2.4364581264       -0.7103068005
 C          4.1974276393       -3.7900050439       -0.6236190213
 C          3.3537338002       -4.2649786885        0.3661571026
 C          2.7934432721       -3.3806515731        1.2727366667
 C          3.0837612334       -2.0315743540        1.1906386757
 C          2.8689443969        2.6898365609       -0.5210011948
 H         -0.4406831417        3.4633141012       -0.7792008154
 H         -2.4603966110        3.6045315564        0.6192727530
 H         -3.1214134451        5.9360513462        1.1069691795
 H         -5.4710611606        6.6258407493        1.0017374043
 H         -7.2376760065        5.0004117917        0.4018042616
 H         -8.6580588364        2.7787930546       -0.2876725262
 H         -9.3894828021        0.5105409351       -0.9547816187
 H         -7.7499396919       -1.2841982591       -1.2797770763
 H         -5.3406148073       -0.8780224994       -0.9463404662
 H         -4.6452750450       -1.7801852286        1.2627505221
 H         -6.2188112167       -3.5311286807        2.0031536536
 H         -5.7023636748       -5.9069687171        1.6870298317
 H         -3.5799395334       -6.6052638375        0.6258410705
 H         -1.1296611484       -6.7040660163       -0.5823464216
 H          1.0156736573       -6.1750809271       -1.6946011977
 H          1.6949013653       -3.8470692210       -2.0582105615
 H          0.2707744379       -1.9790948045       -1.3069073327
 H          1.4061301762       -0.3056977350        0.0488521954
 H          7.2313406531        0.9891056920        0.0597816133
 H          8.8454065759        1.4167394176       -1.7452456990
 H          8.1119422336        1.3504985697       -4.1003143760
 H          5.7544714826        0.8551626104       -4.6375255347
 H          4.1440081263        0.4310293671       -2.8272956507
 H          3.9984582605        2.6787304206        1.9513171614
 H          4.9997937756        3.3111471328        4.1029300089
 H          6.6215582802        1.8097715702        5.2013752856
 H          7.2271562695       -0.3317067961        4.1338551598
 H          6.2177956239       -0.9622351360        1.9818089558
 H          5.1290850339       -2.0710499635       -1.4868700081
 H          4.6421829959       -4.4761737150       -1.3306490195
 H          3.1324851638       -5.3200689435        0.4321262979
 H          2.1322416060       -3.7460483543        2.0451162420
 H          2.6588532040       -1.3488182535        1.9130098462
 H          3.8356987954        3.1612525611       -0.6062609354
