  79
       -124.18905995
 C         -5.9292261360        1.2758099268        4.1861168813
 C         -5.9247375316       -0.0810035460        3.8982750543
 C         -5.8920551703       -0.5293128489        2.5846478462
 C         -5.8628991556        0.4054279092        1.5733102876
 C         -5.8656015042        1.7787172002        1.8581735452
 C         -5.8992042913        2.2187471986        3.1711838488
 C         -5.8310996801        2.5093753881        0.6015069864
 C         -5.8226705475        3.8685022172        0.3344321780
 C         -5.7881083821        4.2845358510       -0.9868816963
 C         -5.7616364809        3.3631512296       -2.0233445384
 C         -5.7714034663        1.9993643459       -1.7631781069
 C         -5.8065068997        1.5820921948       -0.4507836014
 C         -5.8372625145        0.1718371396        0.0825960800
 C         -7.0268585831       -0.6210612190       -0.4045206602
 C         -8.3619314283       -0.3185323040       -0.2818854871
 C         -9.2950072203       -1.2058301228       -0.8084138378
 C         -8.8861178467       -2.3724874942       -1.4427193662
 C         -7.5449018720       -2.6831266570       -1.5691590820
 C         -6.6019451479       -1.8013699330       -1.0476203520
 C         -5.1666840816       -1.8456965516       -1.0301575676
 C         -4.2624955367       -2.7888208400       -1.5277555865
 C         -2.9188979727       -2.5708885851       -1.3744638084
 C         -2.4266221030       -1.4110318380       -0.7257514640
 C         -1.0341491189       -1.2076944771       -0.5923374997
 N         -0.5438993481       -0.1087948654        0.0361391660
 C          0.7224916819        0.0926977925        0.1461676438
 C          1.7181903228       -0.7968469445       -0.3579769186
 C          3.1218729752       -0.5815308749       -0.2530333146
 C          3.6577869506        0.7051315091       -0.0150128170
 C          5.0088812368        0.9149976505        0.0739574525
 C          5.9067763397       -0.1503299732       -0.0668729360
 N          7.2824053041        0.0643605818        0.0188579053
 C          7.9884209542        1.0471575227       -0.6461153732
 C          7.5426198212        1.9850312715       -1.5676845115
 C          8.4757901073        2.8452100619       -2.1154742080
 C          9.8225782117        2.7735611328       -1.7680548482
 C         10.2771167623        1.8233899187       -0.8722850096
 C          9.3591228570        0.9495957686       -0.3091690788
 C          9.4750644298       -0.1498495375        0.6104471366
 C         10.5418764101       -0.7123000551        1.2951161472
 C         10.2961616060       -1.7751098833        2.1447877841
 C          9.0046903030       -2.2632615787        2.3274979718
 C          7.9256102956       -1.7177459596        1.6575445215
 C          8.1698275992       -0.6686322279        0.7815302754
 C          5.3977751150       -1.4342341647       -0.2973677309
 C          4.0465590790       -1.6426922137       -0.3883435691
 C          1.1216263570       -1.9299885378       -0.9877848083
 N         -0.1485401083       -2.1066962435       -1.0940949067
 C         -3.3464303241       -0.4592242021       -0.2206665120
 C         -4.6815674274       -0.6867924330       -0.3759550759
 H         -5.9567165227        1.6006971140        5.2161454380
 H         -5.9482570269       -0.7974528093        4.7062918334
 H         -5.8900478740       -1.5858491641        2.3595584235
 H         -5.9037080044        3.2740987686        3.4006924851
 H         -5.8430707333        4.5899627397        1.1379084683
 H         -5.7814168523        5.3407807758       -1.2140614279
 H         -5.7339266980        3.7113709696       -3.0454597556
 H         -5.7516704463        1.2812469783       -2.5699179697
 H         -8.6799838296        0.5884522671        0.2117481381
 H        -10.3487592981       -0.9858456207       -0.7228157155
 H         -9.6303379734       -3.0457895417       -1.8431328794
 H         -7.2328071373       -3.5907348085       -2.0639718529
 H         -4.6232795155       -3.6741673047       -2.0306150837
 H         -2.1957216484       -3.2760754186       -1.7544013849
 H          1.0122459371        0.9675534197        0.7147926609
 H          2.9888959523        1.5446144011        0.0974435913
 H          5.3926983922        1.9028963413        0.2820466975
 H          6.5049288535        2.0332149527       -1.8603579703
 H          8.1535599718        3.5851788523       -2.8326700097
 H         10.5206769714        3.4639800805       -2.2166190475
 H         11.3240797002        1.7554666403       -0.6192825456
 H         11.5403039945       -0.3221918488        1.1688291542
 H         11.1132078224       -2.2290771709        2.6848363223
 H          8.8411221285       -3.0813853552        3.0126520208
 H          6.9254459905       -2.0878887644        1.8231075738
 H          6.0846685458       -2.2566080989       -0.4330831711
 H          3.6827344392       -2.6428363292       -0.5676058273
 H          1.7422242204       -2.6744122114       -1.4707137596
 H         -2.9696018304        0.4200398418        0.2786899043
