  128
       -204.68138456
 N         -8.7033043637        3.6040394082        1.6349790161
 C         -7.8547468533        2.9153761852        1.2758906595
 C         -6.8073698191        2.0686958045        0.8767272949
 C         -5.6592246062        1.9957735345        1.6543232400
 C         -4.6704852045        1.0717063103        1.3518992187
 C         -4.7888674517        0.2481490783        0.2451797497
 N         -3.9029026542       -0.8225527739        0.0833310809
 C         -4.2904404199       -2.1675784380       -0.0339174180
 C         -5.6212935633       -2.6405927340       -0.0892271373
 C         -5.8897695353       -3.7211450535       -0.9670586966
 C         -7.1413288175       -3.9248840063       -1.4576226479
 C         -8.2278567977       -3.0770322128       -1.0798280852
 C         -9.4880097995       -3.1511924446       -1.6833315139
 C        -10.5209385955       -2.3360289373       -1.2762441247
 C        -10.3616851054       -1.4456625807       -0.1958138747
 C        -11.4062949248       -0.6183859749        0.2642333442
 C        -11.2173757294        0.2236949832        1.3451401836
 C        -10.0093336648        0.2604061180        2.0120576354
 C         -8.9295207826       -0.5412811309        1.5841706854
 C         -7.6898570612       -0.5593690999        2.2494038021
 C         -6.6251966167       -1.2755985507        1.7456932525
 C         -6.7410615987       -1.9965552182        0.5515078782
 C         -8.0229348212       -2.1519202361       -0.0256124986
 C         -9.1040532250       -1.3812776290        0.4560262572
 N         -3.2271262549       -2.9562225673       -0.1897224766
 C         -2.1527577053       -2.1651709129       -0.1249066859
 C         -0.7837401676       -2.5503135808       -0.1505813725
 C         -0.4127832941       -3.8977757288       -0.2028768679
 C          0.9098322841       -4.2592259663       -0.1650451790
 C          1.9009465003       -3.2736284559       -0.0767549341
 C          3.3187193078       -3.6465122201       -0.0098567180
 C          3.7321520279       -4.7317022278        0.7620385787
 C          5.0650011725       -5.0762719516        0.8459067181
 C          6.0223617884       -4.3523865499        0.1382707483
 N          7.3736758038       -4.7037348938        0.2160121723
 C          7.8868032279       -5.9785299127        0.0702586790
 C          7.2363635277       -7.1640436503       -0.2413302572
 C          8.0013029048       -8.3092808589       -0.3555547202
 C          9.3823220824       -8.2829627124       -0.1757379752
 C         10.0388421577       -7.1013223394        0.1058804276
 C          9.2913239403       -5.9374950967        0.2252923419
 C          9.6342110867       -4.5660245353        0.4807842627
 C         10.8343777141       -3.9131673480        0.7271980544
 C         10.8114408821       -2.5525088827        0.9612141545
 C          9.6099473182       -1.8480192524        0.9694690542
 C          8.4029365553       -2.4763196698        0.7278862554
 C          8.4220749139       -3.8384807929        0.4637316270
 C          5.6174471348       -3.2749543267       -0.6464803810
 C          4.2847715180       -2.9239548907       -0.7090035329
 C          1.5309815640       -1.9369871609       -0.0428558480
 C          0.1944032484       -1.5321414605       -0.0834153467
 C         -0.2057725466       -0.1319994204       -0.0733217376
 C          0.7367869934        0.8923018988       -0.1228054302
 C          0.3914953211        2.2375120157       -0.1542772974
 C          1.4248562870        3.2725402434       -0.1809526158
 C          1.2401310797        4.4584028332       -0.8947863962
 C          2.2132108371        5.4346823989       -0.9180349369
 C          3.4035865347        5.2564181531       -0.2160612190
 N          4.3914747933        6.2452754832       -0.2321284802
 C          5.7311629560        6.0429633339       -0.5011698757
 C          6.3934363260        4.8793977764       -0.8655796721
 C          7.7507713825        4.9598985457       -1.1127159927
 C          8.4381300435        6.1670584564       -1.0108193266
 C          7.7796883818        7.3330213291       -0.6730621316
 C          6.4158326508        7.2771540029       -0.4199797683
 C          5.4330200215        8.2673023040       -0.0762236169
 C          5.4973451649        9.6334129595        0.1622524389
 C          4.3377668639       10.3001902238        0.5053895786
 C          3.1288649242        9.6189618652        0.6266711014
 C          3.0399653499        8.2595092790        0.3944673029
 C          4.1969672956        7.5885710459        0.0251544219
 C          3.5978864665        4.0790359065        0.5034982441
 C          2.6239580225        3.1038613379        0.5151398632
 C         -0.9696963876        2.5748703716       -0.1727935550
 C         -1.9274950935        1.5994455018       -0.1187739521
 C         -1.5852247302        0.2356319217       -0.0403315465
 C         -2.5344760616       -0.8084191098        0.0167151752
 C         -5.8785862425        0.4057702293       -0.6594674737
 C         -5.9626057166       -0.2920867030       -1.8797926184
 C         -7.0735796256       -0.1847596899       -2.6728132283
 C         -8.1428315925        0.6307586749       -2.2860849967
 C         -8.0637044295        1.3709774479       -1.1368408731
 C         -6.9270272396        1.2943543843       -0.3114215175
 H         -5.5675247695        2.6158962324        2.5335791592
 H         -3.8225869499        0.9570835831        2.0118559449
 H         -5.0484522022       -4.3005702679       -1.3154149083
 H         -7.3253163141       -4.7019897758       -2.1845528014
 H         -9.6421144745       -3.8581713484       -2.4861899958
 H        -11.4793286396       -2.3853491184       -1.7725395307
 H        -12.3613276225       -0.6531952527       -0.2389609874
 H        -12.0281071191        0.8549155850        1.6783206466
 H         -9.8730199436        0.9124453208        2.8613653827
 H         -7.5788728546        0.0069827360        3.1626919567
 H         -5.6841851963       -1.2838310268        2.2760881891
 H         -1.1985578386       -4.6344668773       -0.2630853250
 H          1.1937880725       -5.2994937694       -0.2179138310
 H          3.0021156302       -5.2890337142        1.3300392549
 H          5.3768116486       -5.8956055197        1.4760531497
 H          6.1694620643       -7.1926875975       -0.4034723100
 H          7.5171936446       -9.2447915582       -0.5934626099
 H          9.9441047423       -9.2001638178       -0.2690242945
 H         11.1111533238       -7.0768434892        0.2273559157
 H         11.7630535357       -4.4632575663        0.7390106877
 H         11.7338721852       -2.0246845841        1.1513265928
 H          9.6207680734       -0.7873795383        1.1728813497
 H          7.4759984881       -1.9236827935        0.7575634406
 H          6.3515772542       -2.7295771431       -1.2204093427
 H          3.9824304850       -2.0983706999       -1.3366100243
 H          2.3176164498       -1.2057186553        0.0502674635
 H          1.7845317231        0.6467730214       -0.1739681150
 H          0.3358516131        4.6019735243       -1.4669304700
 H          2.0682171815        6.3340839336       -1.4976316012
 H          5.8659347013        3.9427766776       -0.9664873246
 H          8.2892048738        4.0672876869       -1.3951984479
 H          9.4990936460        6.1882651659       -1.2096438548
 H          8.3088716691        8.2717793391       -0.6112022484
 H          6.4376051267       10.1579182507        0.0850301091
 H          4.3653131092       11.3630588824        0.6929539018
 H          2.2415148137       10.1640525568        0.9126025420
 H          2.1020946409        7.7374902079        0.5104734108
 H          4.5068795230        3.9479525673        1.0714538286
 H          2.7777461033        2.2127221764        1.1056409051
 H         -1.2664923985        3.6120606109       -0.2091896197
 H         -2.9669800438        1.8809546377       -0.1558785906
 H         -5.1398228865       -0.9189097696       -2.1897332088
 H         -7.1286721644       -0.7335715064       -3.6007606163
 H         -9.0252708569        0.6839210730       -2.9054186231
 H         -8.8734060605        2.0221765294       -0.8421723222
