  102
       -141.68222448
 C         -6.0334492128       -5.3735143428        0.4421830472
 C         -5.2125307552       -4.1379331667        0.2394307619
 C         -4.1101201271       -3.8831493295        1.0534112913
 C         -3.3322186470       -2.7514388988        0.9013758116
 C         -2.1987859377       -2.5304061712        1.8613013521
 C         -3.6563265149       -1.8252825363       -0.1082778476
 N         -2.8781630858       -0.6771252884       -0.2937140723
 C         -1.5105552341       -0.7733118150       -0.3184624344
 C         -0.8544228735       -1.9367544562       -0.8233613459
 C          0.5000369319       -1.9876574195       -0.8770995621
 C          1.2989927199       -0.8908504723       -0.4348852090
 C          0.6441202591        0.3020654931        0.0167682220
 C         -0.7135712098        0.3231133944        0.0971875810
 C          1.4702287765        1.4840221395        0.4705953802
 C          1.6600208449        1.4637613834        1.9817319026
 C          2.0066925734        2.6249001884        2.6708425340
 C          2.2342485195        2.5965357724        4.0331205311
 C          2.1308007976        1.4079625624        4.7374164572
 C          1.7949243226        0.2463563141        4.0588987214
 C          1.5628867238        0.2745356905        2.6966861352
 C          0.7367530961        2.7099938892       -0.0427646667
 C          0.9006415932        3.0963592351       -1.3693746871
 C          0.1714900868        4.1446065820       -1.8968977745
 C         -0.7475885229        4.8228680884       -1.1087056338
 C         -0.9277265634        4.4371258569        0.2083484891
 C         -0.1958728862        3.3902923891        0.7378955863
 C          2.8774654686        1.4174276816       -0.0800340913
 C          3.6844444199        2.5458647304       -0.1010335749
 C          4.9895796364        2.4734702023       -0.5409843500
 C          5.5115631245        1.2657539227       -1.0016707664
 C          4.7355608033        0.1226993341       -1.0041283999
 C          3.4256987883        0.1972016866       -0.5101551862
 N          2.6605414477       -0.9626224703       -0.4489474841
 C          3.3462528970       -2.1525707774       -0.2331209052
 C          2.7854171564       -3.1553791351        0.5739634644
 C          3.4920975999       -4.3071612507        0.8353146237
 C          4.7678532172       -4.4733336438        0.3171022533
 C          5.3375949704       -3.4665923506       -0.4593310320
 C          4.6462704242       -2.3061011234       -0.7439439461
 C          5.1745653340       -1.1915949203       -1.6193532968
 C          6.6853415984       -1.2718357564       -1.8287877802
 C          4.4878289522       -1.3082783465       -2.9979736771
 C         -3.4615957570        0.5935741517       -0.4272421031
 C         -4.4296109020        1.0298590612        0.4992551689
 C         -4.9024364885        0.1501371408        1.6172117451
 C         -4.9306955296        2.3162320556        0.3946356104
 C         -4.5119209728        3.1910709063       -0.5968872597
 C         -5.0451778487        4.5869864547       -0.6901621343
 C         -3.5771106385        2.7337930559       -1.5210293725
 C         -3.0478307029        1.4597155004       -1.4570439651
 C         -2.0725644173        1.0475817698       -2.5201859971
 C         -4.7725430987       -2.0639685731       -0.9366701077
 C         -5.1506867803       -1.1203001579       -2.0382664759
 C         -5.5230863013       -3.2114167826       -0.7439912540
 H         -6.8406725406       -5.4278030589       -0.2837243819
 H         -5.4135962724       -6.2640359260        0.3415301486
 H         -6.4650902999       -5.3829293136        1.4429930365
 H         -3.8660442079       -4.5851300395        1.8377819677
 H         -2.0118663192       -1.4738764398        2.0292339701
 H         -1.2813692324       -2.9708614540        1.4737080687
 H         -2.4256492195       -3.0057585794        2.8138529232
 H         -1.4560406747       -2.7490025617       -1.2022895583
 H          1.0002214797       -2.8450472815       -1.3010556809
 H         -1.2186128970        1.1867873211        0.4991328118
 H          2.0930917779        3.5589510877        2.1397180372
 H          2.4976798493        3.5083080263        4.5500981456
 H          2.3113702254        1.3857751193        5.8016690382
 H          1.7132023187       -0.6879517559        4.5963225759
 H          1.2984324986       -0.6400764250        2.1903213495
 H          1.6067729693        2.5679164166       -1.9934032984
 H          0.3141502668        4.4321727769       -2.9288891968
 H         -1.3167137189        5.6428188271       -1.5210376915
 H         -1.6488819417        4.9505895630        0.8283316195
 H         -0.3538060196        3.0971204672        1.7644092307
 H          3.2791571418        3.4912381620        0.2203322037
 H          5.6071439197        3.3585451326       -0.5503668871
 H          6.5232129860        1.2464055266       -1.3692055018
 H          1.8115746487       -3.0013619007        1.0096783811
 H          3.0551596702       -5.0748986245        1.4567652245
 H          5.3261427424       -5.3733928685        0.5212661705
 H          6.3360610270       -3.6134901769       -0.8358056081
 H          7.2120186939       -1.1877350594       -0.8813390050
 H          6.9492058179       -2.2142897418       -2.3005377515
 H          7.0151604957       -0.4764961483       -2.4911989601
 H          4.7459544643       -2.2579609876       -3.4616255252
 H          4.8165936437       -0.4994152699       -3.6466186909
 H          3.4079196841       -1.2540639929       -2.8971063582
 H         -4.0656274098       -0.3394483951        2.1069333234
 H         -5.4415045569        0.7403719735        2.3548465863
 H         -5.5701316665       -0.6261952078        1.2464789994
 H         -5.6619846008        2.6495920346        1.1174666915
 H         -5.6981733549        4.8128894225        0.1490840633
 H         -4.2249424033        5.3036038584       -0.6992993952
 H         -5.6096819170        4.7187099585       -1.6133293507
 H         -3.2541837224        3.3928638100       -2.3125516612
 H         -1.0733122204        1.3919686947       -2.2589897592
 H         -2.0360926202       -0.0299106926       -2.6477007465
 H         -2.3491136956        1.5072127415       -3.4677675402
 H         -5.6471502584       -0.2361504728       -1.6407144386
 H         -5.8308036440       -1.6099720523       -2.7318065039
 H         -4.2727251097       -0.7888584405       -2.5848454685
 H         -6.3740353776       -3.3895855734       -1.3861585694
