  58
        -96.26468283
 C         -7.7179930773       -2.0766812736       -0.5921643730
 C         -6.5953922389       -2.8950164186       -0.5130891221
 C         -5.3405102501       -2.3779826688       -0.2454945078
 C         -5.2312503415       -1.0102023633       -0.0435999536
 C         -6.3605874354       -0.1687023421       -0.1606468083
 C         -7.6098825401       -0.7089927816       -0.4288779279
 C         -5.8922456988        1.1797026870        0.0189206252
 C         -6.5234866945        2.4155080590        0.0140077692
 C         -5.7595745938        3.5478402788        0.2222077946
 C         -4.3875176708        3.4565939698        0.4390979577
 C         -3.7384207827        2.2354794988        0.4501137056
 C         -4.4991602863        1.0992986573        0.2288102062
 N         -4.1097932808       -0.2332933358        0.2063454064
 C         -2.8264850412       -0.6851119416        0.4541619440
 C         -2.6011403805       -1.8471669455        1.2129862172
 N         -1.3503026582       -2.2621152229        1.4205319739
 C         -0.3490060661       -1.5862883855        0.9638694625
 C         -0.5476376162       -0.3699822293        0.2464917134
 C          0.5464361249        0.3725712515       -0.2368351008
 C          0.3489504160        1.5906963502       -0.9512784425
 N          1.3509104261        2.2688228909       -1.4030551217
 C          2.6015298292        1.8534971409       -1.1943908683
 C          2.8255122684        0.6874339160       -0.4416571300
 N          4.1085749124        0.2326503477       -0.1971482079
 C          5.2308057420        1.0075165450        0.0551376228
 C          5.3395565795        2.3730591381        0.2716360406
 C          6.5953971374        2.8885195757        0.5379383345
 C          7.7192085098        2.0704907466        0.6014454661
 C          7.6116174648        0.7044801155        0.4239816959
 C          6.3614007509        0.1657105345        0.1569113327
 C          5.8929922490       -1.1808855815       -0.0353255285
 C          6.5249625415       -2.4162623190       -0.0482845546
 C          5.7606025047       -3.5465879426       -0.2656151791
 C          4.3872514246       -3.4538526704       -0.4738129542
 C          3.7373401335       -2.2331875907       -0.4669151807
 C          4.4987075044       -1.0991474239       -0.2369148598
 N          1.8164475028       -0.0273803510        0.0068463893
 N         -1.8179084807        0.0281452798        0.0018794212
 H         -8.6809995661       -2.5184873850       -0.7990045844
 H         -6.7032756656       -3.9579773067       -0.6692715687
 H         -4.4772592465       -3.0243650162       -0.2172916975
 H         -8.4744648401       -0.0688801548       -0.5154796774
 H         -7.5883489794        2.4854401369       -0.1480695208
 H         -6.2306957257        4.5193514773        0.2203280947
 H         -3.8173253256        4.3584191004        0.6043155633
 H         -2.6763577620        2.1660922834        0.6235034265
 H         -3.3977043238       -2.3910183688        1.6902975071
 H          0.6565648754       -1.9454764993        1.1217635994
 H         -0.6563306956        1.9506621101       -1.1096339257
 H          3.3989079731        2.4004337923       -1.6667339824
 H          4.4752586298        3.0185710032        0.2544575454
 H          6.7029208823        3.9496269280        0.7056621638
 H          8.6829768540        2.5109294038        0.8079897555
 H          8.4775399863        0.0646612979        0.4983613539
 H          7.5905795759       -2.4874193685        0.1076938660
 H          6.2323538423       -4.5177045299       -0.2783090729
 H          3.8167986810       -4.3542164342       -0.6464805853
 H          2.6740487610       -2.1623621179       -0.6329313923
