  58
        -96.32247502
 C         -7.7232867935        1.5241878551        1.5669602105
 C         -6.6060229344        2.2646563469        1.9393024105
 C         -5.3398112127        1.9436619971        1.4832997828
 C         -5.2115230977        0.8614267877        0.6257157904
 C         -6.3349936980        0.0767538925        0.2837555659
 C         -7.5967075103        0.4184522188        0.7491586366
 C         -5.8503474208       -1.0146513579       -0.5179404359
 C         -6.4784443145       -2.0850553871       -1.1395631473
 C         -5.7048335097       -2.9808598589       -1.8512398248
 C         -4.3267339473       -2.8123441176       -1.9513981095
 C         -3.6811553829       -1.7521605610       -1.3411538096
 C         -4.4522391986       -0.8576435226       -0.6174655421
 N         -4.0741209195        0.3019298903        0.0542022205
 C         -2.7968559431        0.8228602662        0.0885167288
 C         -2.5514700902        2.2075349664        0.0731919833
 N         -1.3278016919        2.6880612346        0.1493541916
 C         -0.3237834598        1.8268306230        0.2180635645
 C         -0.5468397750        0.4511275689        0.1455520193
 C          0.5575442749       -0.5092259651        0.1457282688
 C          0.3473223000       -1.8863834151        0.2240656402
 N          1.3604716748       -2.7377166959        0.1601699412
 C          2.5802654781       -2.2474503312        0.0796526441
 C          2.8124954834       -0.8605185142        0.0840731560
 N          4.0814249501       -0.3198074689        0.0400694762
 C          5.2308093709       -0.8462976952        0.6181824801
 C          5.3852319398       -1.9227984544        1.4785564043
 C          6.6572255827       -2.2054092757        1.9435272612
 C          7.7548135914       -1.4333314974        1.5769590222
 C          7.6016540024       -0.3346759992        0.7541956546
 C          6.3338063278       -0.0318552104        0.2787413163
 C          5.8238802118        1.0414890550       -0.5314658531
 C          6.4258114992        2.1242043698       -1.1576317560
 C          5.6322124408        2.9933226659       -1.8800970888
 C          4.2599027097        2.7868748232       -1.9858984161
 C          3.6403597468        1.7139461496       -1.3711602742
 C          4.4312951319        0.8457525201       -0.6368927790
 N          1.7913314720       -0.0114317605        0.0835252748
 N         -1.7845979105       -0.0375550434        0.0886285713
 H         -8.6953252617        1.8096345714        1.9392725903
 H         -6.7257559007        3.1058323923        2.6055502323
 H         -4.4843582918        2.5114128269        1.8152180615
 H         -8.4559704972       -0.1776500572        0.4830699260
 H         -7.5481553906       -2.2087436317       -1.0661758755
 H         -6.1720535478       -3.8228165861       -2.3398062237
 H         -3.7468017694       -3.5260747315       -2.5171962808
 H         -2.6133334413       -1.6275354440       -1.4203179934
 H         -3.3468670398        2.9287201279       -0.0450857154
 H          0.6718899137        2.2327181918        0.3073519258
 H         -0.6439394768       -2.3028404844        0.3145434095
 H          3.3817080252       -2.9629152983       -0.0324859235
 H          4.5449688674       -2.5155366217        1.8048234840
 H          6.7975462062       -3.0415848635        2.6120073918
 H          8.7322654371       -1.6885475365        1.9573678509
 H          8.4450148373        0.2853613669        0.4915898914
 H          7.4912967865        2.2776712350       -1.0796147724
 H          6.0789829071        3.8435078260       -2.3730499833
 H          3.6635513209        3.4800200485       -2.5601921422
 H          2.5770601705        1.5597860674       -1.4563743760
