58
 energy: -96.305155945264 gnorm: 0.000036134394 xtb: 6.7.1 (edcfbbe)
C           -7.70960585389085       -2.08046656546248       -0.60831373967871
C           -6.58260060115370       -2.89328493513482       -0.53315243124936
C           -5.33069418355982       -2.37007999919735       -0.25914445188470
C           -5.23074504089553       -1.00290170921167       -0.04759989858271
C           -6.36445538439195       -0.16677431327036       -0.15927365415603
C           -7.61035445028571       -0.71263821424380       -0.43351693875771
C           -5.90357248493160        1.18431322471058        0.03037568205500
C           -6.54158667060420        2.41676157355426        0.03317787403550
C           -5.78381989113214        3.55270156721778        0.25058935154026
C           -4.41142879043998        3.46831013488173        0.46866466825639
C           -3.75589525327318        2.24967674953350        0.47197152599880
C           -4.50992350329952        1.11100323304147        0.24010379501512
N           -4.11161528282323       -0.22002895490462        0.20662324171444
C           -2.82857591271514       -0.66852371396319        0.45539613073227
C           -2.60651477774402       -1.82188776576586        1.22772894518030
N           -1.35716709931978       -2.24386780266192        1.43880519617910
C           -0.35468665496117       -1.57305341963224        0.97192038047544
C           -0.54859009528340       -0.36418991794770        0.24395059837968
C            0.54966954543810        0.36689350455494       -0.25103649697906
C            0.35674419886268        1.57609267746592       -0.97866681413197
N            1.35990858617358        2.24702000453463       -1.44401697162848
C            2.60900631184784        1.82476937835490       -1.23186762256089
C            2.83003002637927        0.67058654664993       -0.46047735798062
N            4.11251245178299        0.22090637070165       -0.21087090869537
C            5.23182313014618        1.00232554200413        0.04689853944132
C            5.33270942244321        2.36917312446493        0.26008671931557
C            6.58441742715834        2.89068104245167        0.53821546502923
C            7.71031855344637        2.07653805304306        0.61562114321649
C            7.61007445413142        0.70903171164040        0.43890256896369
C            6.36433986700757        0.16483723455558        0.16062626400875
C            5.90249677949320       -1.18556095764330       -0.03154028924716
C            6.53914180911847       -2.41872791739208       -0.03382851104807
C            5.78065772483107       -3.55363978931403       -0.25407336400924
C            4.40889898304903       -3.46753601038020       -0.47543719282101
C            3.75474636563218       -2.24817026376228       -0.47933312924298
C            4.50945005030206       -1.11052501130013       -0.24460168415844
N            1.81874661840704       -0.03631943354012        0.00089036919896
N           -1.81795688475006        0.03842436974628       -0.00745700576383
H           -8.66964933185791       -2.52616229842332       -0.82057111304590
H           -6.68275662431091       -3.95569671548796       -0.69744968700520
H           -4.46281306011204       -3.01084691606504       -0.23091850866763
H           -8.47894642382409       -0.07776818697462       -0.51587140217929
H           -7.60620510980197        2.48222374097598       -0.13035941148660
H           -6.26046610397218        4.52151123350092        0.25538706728508
H           -3.84505799846126        4.37128882255542        0.64146886942136
H           -2.69308603006952        2.18397505214882        0.64528267659796
H           -3.40484877420346       -2.35736850132305        1.71209914087321
H            0.64917631941590       -1.93759121705428        1.12916305392250
H           -0.64683181616155        1.94099217800928       -1.13689852917691
H            3.40792366570415        2.36070389681762       -1.71477593523218
H            4.46562808748106        3.01093913666051        0.23003686884071
H            6.68529593726948        3.95280059545616        0.70395697904994
H            8.67024275660132        2.52091431829401        0.83117013766849
H            8.47773092289633        0.07310991051597        0.52300315388330
H            7.60327448131855       -2.48554586799791        0.13229958843538
H            6.25622753488982       -4.52297990549001       -0.25845022798424
H            3.84191725228690       -4.36972922022960       -0.65033879854031
H            2.69243744294134       -2.18118197189833       -0.65519180228213
