58
 energy: -96.362580459267 gnorm: 0.000052554120 xtb: 6.7.1 (edcfbbe)
C           -7.72081706837072       -2.06394850734789       -0.47119174915620
C           -6.60690403498743       -2.89314772214634       -0.38670233165235
C           -5.34313306474561       -2.38508627909358       -0.13885142232384
C           -5.21530557237354       -1.01591116121886        0.03948688512748
C           -6.33435591117661       -0.16476996899479       -0.09240334945087
C           -7.59332476772230       -0.69448387476221       -0.33949723543855
C           -5.84978689776689        1.18443790295321        0.03893219218665
C           -6.47615452789853        2.42314129341034        0.00962974217776
C           -5.70452094383153        3.55731666860296        0.17482758920215
C           -4.33061890753737        3.46336571986267        0.37720170031266
C           -3.68765378848709        2.23834229367244        0.41120681730922
C           -4.45533214668608        1.10005808931566        0.23028125764489
N           -4.07743125059127       -0.24198794630433        0.25889977092012
C           -2.80177234140978       -0.70381627252552        0.49630719794281
C           -2.55300210755625       -1.88037081954988        1.22780751010338
N           -1.32691403729599       -2.31272310761133        1.43894116283177
C           -0.32253640449415       -1.60058150760328        0.94619759142029
C           -0.55026020279366       -0.41031544120443        0.25554053805728
C            0.55026784891800        0.41049957206975       -0.25520976243242
C            0.32254894260346        1.60082030343109       -0.94577345274514
N            1.32692569810610        2.31296685035300       -1.43851157368993
C            2.55300961420171        1.88055642712439       -1.22747532724824
C            2.80177797482134        0.70393200566414       -0.49608609533773
N            4.07743136526912        0.24202287202000       -0.25880844966777
C            4.45526773128921       -1.10004527078651       -0.23033447406918
C            3.68751404682231       -2.23827734333931       -0.41126910298763
C            4.33042177278687       -3.46333542420717       -0.37742419867436
C            5.70433946808960       -3.55737057120785       -0.17519724095565
C            6.47604621137099       -2.42324667689051       -0.00998813813956
C            5.84973740277686       -1.18450977054508       -0.03913106798044
C            6.33438775223284        0.16466363573515        0.09226092212164
C            7.59340874367966        0.69429491337555        0.33926685229097
C            7.72098323517349        2.06374268903389        0.47105575681835
C            6.60710290644495        2.89300409127545        0.38674701587054
C            5.34328110789768        2.38502541313272        0.13898609278874
C            5.21536715071035        1.01587106743533       -0.03945056324176
N            1.78957850970122       -0.02757257904621       -0.03803005437009
N           -1.78957450525086        0.02769710184365        0.03826202567897
H           -8.69071098501375       -2.49824322210338       -0.66089776791766
H           -6.72552268498991       -3.95750513791799       -0.52382692448358
H           -4.48979938524319       -3.04492596194171       -0.11191669563471
H           -8.44918557984015       -0.04452309412496       -0.43558914595951
H           -7.54297879376367        2.49279106903572       -0.13687444137908
H           -6.17017866079091        4.53116951704791        0.15123768600108
H           -3.75094645203088        4.36472788980685        0.50997183939890
H           -2.62324550558935        2.17024432448824        0.56934085351398
H           -3.34877898718013       -2.45115483012165        1.68324447260034
H            0.67617460695624       -1.96675686242385        1.12634349319779
H           -0.67615837193426        1.96704125510492       -1.12584617486870
H            3.34878166104884        2.45134860323969       -1.68291041024088
H            2.62309258285471       -2.17011558179542       -0.56928690160733
H            3.75069100107540       -4.36465822233730       -0.51020738345674
H            6.16995127195919       -4.53124823858191       -0.15173109522724
H            7.54288198221577       -2.49296167500129        0.13640161404024
H            8.44924748621512        0.04428414806007        0.43521598857616
H            8.69091859102831        2.49797422074403        0.66069475161066
H            6.72578847033915        3.95734493239438        0.52394248837824
H            4.48997775077765        3.04491020050868        0.11219172221366
