  79
  -131.358951960000       0.309944597132040      !
 C          3.7969917200       -5.5411271897        1.7186119893
 C          4.1801676358       -4.2007025624        1.5769556596
 C          3.2324550115       -3.2400970426        1.3552674778
 C          1.8593652859       -3.6052800092        1.2451123256
 C          0.8014233650       -2.7005405182        0.9862950213
 C         -0.5273365032       -3.0711427333        1.3470901001
 C         -1.5680554441       -2.2002000948        1.2896384222
 C         -1.3658234567       -0.8667268645        0.8414006682
 N         -2.4254232781        0.0265080808        0.7692586284
 C         -2.3987374249        1.3440799309        1.1912754616
 C         -1.3813390633        2.0571291700        1.8075659258
 C         -1.6306398898        3.3710049027        2.1614783353
 C         -2.8673428139        3.9659683836        1.9189442622
 C         -3.8983158879        3.2548245012        1.3338680739
 C         -3.6678045046        1.9347689333        0.9730296333
 C         -4.4864381006        0.9173074943        0.3884672930
 C         -5.7892354280        0.8393913500       -0.0731577190
 O         -6.7333784737        1.8131686402       -0.0588882697
 C         -7.8474611788        1.2697044291       -0.6288902078
 C         -9.0603162657        1.8993632239       -0.8272643028
 C        -10.0665248025        1.1616724259       -1.4300248082
 C         -9.8646918045       -0.1604581839       -1.8201920482
 C         -8.6524047547       -0.7894006876       -1.6217157626
 C         -7.6259036274       -0.0691066893       -1.0183540937
 C         -6.2700466806       -0.3539625248       -0.6534687725
 C         -5.4401308250       -1.4732429356       -0.7925637606
 C         -4.1424060589       -1.4192555567       -0.3359137297
 C         -3.6802313961       -0.2478138604        0.2702993589
 C         -0.0902735022       -0.4924942763        0.4067500447
 C          0.9623109454       -1.3785764254        0.4291054332
 N          2.1638575178       -0.9965382559       -0.1774879035
 C          2.7956171363       -1.6850047554       -1.1963582998
 C          2.4384579166       -2.8770772956       -1.8088040568
 C          3.2520751197       -3.3460946744       -2.8227929953
 C          4.3867492776       -2.6463409813       -3.2293087868
 C          4.7360749184       -1.4467913210       -2.6383614766
 C          3.9333978918       -0.9584124171       -1.6176271101
 C          3.9748452408        0.2244438032       -0.8092055885
 C          4.8144189007        1.3202495866       -0.6914168456
 O          5.9310032442        1.5915291452       -1.4132902290
 C          6.4171067304        2.7708227687       -0.9311856901
 C          7.5467997717        3.4351089810       -1.3690173437
 C          7.8664185565        4.6256081781       -0.7380247436
 C          7.0826884267        5.1339073865        0.2951400782
 C          5.9540544590        4.4697016645        0.7319963830
 C          5.6128091268        3.2720349522        0.1139562512
 C          4.5559176675        2.3148658010        0.2745002254
 C          3.4644540742        2.2123141046        1.1426225031
 C          2.6155574604        1.1336868186        1.0409406745
 C          2.8595841140        0.1646109043        0.0651518920
 N          1.5215809315       -4.9098882197        1.4452743283
 C          2.4345820673       -5.8143179950        1.6657663623
 H          4.5182863510       -6.3253098861        1.8751371538
 H          5.2221910124       -3.9264899965        1.6648520547
 H          3.5124888297       -2.2001411282        1.3353979869
 H         -0.6657637831       -4.0762156762        1.7121115595
 H         -2.5490627389       -2.4914878049        1.6311245153
 H         -0.4287157682        1.6001497993        2.0208301123
 H         -0.8518540705        3.9453604705        2.6401540890
 H         -3.0221614674        4.9951167785        2.2060175527
 H         -4.8648878959        3.7023666909        1.1625309899
 H         -9.2106414996        2.9228715129       -0.5235835878
 H        -11.0275004402        1.6223113492       -1.6011083900
 H        -10.6751013378       -0.6999351210       -2.2870509889
 H         -8.4968010595       -1.8134217378       -1.9245294599
 H         -5.8177329270       -2.3646860698       -1.2673262763
 H         -3.4824142464       -2.2620670898       -0.4646858998
 H          0.0484259272        0.4797756793       -0.0434737344
 H          1.5591236575       -3.4204260368       -1.5018861435
 H          3.0011055628       -4.2746982371       -3.3130654392
 H          4.9971099495       -3.0485837727       -4.0238600632
 H          5.6071579224       -0.8950990121       -2.9562311298
 H          8.1492786375        3.0366585546       -2.1693803331
 H          8.7423146074        5.1711304232       -1.0545085251
 H          7.3668155633        6.0653225699        0.7612810762
 H          5.3482027373        4.8645678839        1.5329609690
 H          3.2992035449        2.9730204115        1.8890179496
 H          1.7829055561        1.0211311843        1.7165375262
 H          2.0677621398       -6.8261757267        1.7922017301
  79
  -131.358578310000       0.208721131104533      !
 C          3.8431952678       -5.6323101597        1.8719724636
 C          4.2093719410       -4.2870473439        1.7292744179
 C          3.2537018095       -3.3437867779        1.4709048486
 C          1.8895733506       -3.7315588766        1.3260364673
 C          0.8274335926       -2.8424004242        1.0386597511
 C         -0.5091777844       -3.2424765626        1.3360945873
 C         -1.5564028893       -2.3783556233        1.2884196465
 C         -1.3453949046       -1.0213700936        0.9253638816
 N         -2.3947686518       -0.1107624791        0.9005995197
 C         -2.3515498092        1.1612352174        1.4403870245
 C         -1.3495145998        1.7731203152        2.1785645007
 C         -1.5759401855        3.0570709278        2.6395281591
 C         -2.7749654337        3.7193878983        2.3816756537
 C         -3.7914174627        3.1065652658        1.6729109215
 C         -3.5840514506        1.8169858853        1.2041268310
 C         -4.3966274205        0.8863566055        0.4815033355
 C         -5.6645061116        0.9035675094       -0.0739509640
 O         -6.5674904390        1.9152187535       -0.0447245953
 C         -7.6524029397        1.4751681119       -0.7447061993
 C         -8.8169013805        2.1783805189       -0.9828519068
 C         -9.7983951155        1.5454672476       -1.7281226171
 C         -9.6196614057        0.2532206443       -2.2167103310
 C         -8.4562563008       -0.4497558410       -1.9767902338
 C         -7.4550833775        0.1648940225       -1.2314665395
 C         -6.1449958177       -0.2138101687       -0.7894417231
 C         -5.3527068186       -1.3552486365       -0.9604053409
 C         -4.0896928323       -1.3959542983       -0.4134098692
 C         -3.6256339770       -0.2954054528        0.3117741134
 C         -0.0678408824       -0.6219868333        0.5261520891
 C          0.9905019451       -1.5030065635        0.5198333063
 N          2.1850150986       -1.1017489060       -0.0842069086
 C          2.8255918479       -1.7811411268       -1.1068197807
 C          2.5162792912       -3.0017546378       -1.6882631813
 C          3.3278412804       -3.4496523547       -2.7138676366
 C          4.4139727332       -2.7018758623       -3.1643892158
 C          4.7120529094       -1.4722313201       -2.6085476185
 C          3.9103666301       -1.0051467838       -1.5771483433
 C          3.9060513484        0.2011851193       -0.8040099521
 C          4.6691108764        1.3564667543       -0.7627238514
 O          5.7265843260        1.6806849603       -1.5488872910
 C          6.1329523726        2.9184470588       -1.1460527980
 C          7.1757179889        3.6542550385       -1.6753459362
 C          7.4177011315        4.9000931584       -1.1211639145
 C          6.6436083032        5.3921248812       -0.0728608541
 C          5.6022752326        4.6562301213        0.4559817691
 C          5.3391985479        3.4023722737       -0.0845534351
 C          4.3747281003        2.3716822829        0.1710409722
 C          3.3314678717        2.2241656538        1.0909331941
 C          2.5569606542        1.0867513354        1.0628878150
 C          2.8241515599        0.1021322897        0.1083232797
 N          1.5671676628       -5.0415244325        1.5201737059
 C          2.4877586960       -5.9287317873        1.7758485514
 H          4.5715829522       -6.4035580737        2.0576290825
 H          5.2441160420       -3.9959377877        1.8447383159
 H          3.5171628422       -2.2994356876        1.4452495751
 H         -0.6477344320       -4.2660972375        1.6452456318
 H         -2.5477769492       -2.6945094071        1.5736834759
 H         -0.4299714510        1.2566331937        2.4029070400
 H         -0.8101652925        3.5542371090        3.2157608775
 H         -2.9126728922        4.7229555281        2.7550398637
 H         -4.7297372421        3.6062233924        1.4890339904
 H         -8.9480267104        3.1791009033       -0.6036401126
 H        -10.7210238056        2.0660854925       -1.9348104715
 H        -10.4090705726       -0.2038538605       -2.7943442751
 H         -8.3190329803       -1.4503183299       -2.3569703524
 H         -5.7304013531       -2.1891313231       -1.5303237720
 H         -3.4557678025       -2.2558560825       -0.5601975161
 H          0.0655371405        0.3709452828        0.1216883212
 H          1.6734005405       -3.5839772628       -1.3525152330
 H          3.1126648598       -4.4002668172       -3.1781941762
 H          5.0245514444       -3.0889168393       -3.9663063423
 H          5.5421964565       -0.8802967820       -2.9614524372
 H          7.7705587417        3.2684455904       -2.4875754470
 H          8.2234896071        5.5029041481       -1.5113489568
 H          6.8647743139        6.3689717743        0.3303893147
 H          5.0024621734        5.0393305535        1.2672152499
 H          3.1416515974        2.9994775150        1.8160874950
 H          1.7613504611        0.9471979373        1.7764777909
 H          2.1345162640       -6.9464437729        1.8943029846
  79
  -131.358476780000       0.187459071786335      !
 C          3.7706757107       -5.3931529026        1.6655883959
 C          4.1462580594       -4.0482189838        1.5528555349
 C          3.1974650893       -3.0934634125        1.3086139619
 C          1.8330504572       -3.4701536363        1.1520563407
 C          0.7744995648       -2.5686325384        0.8757482284
 C         -0.5525731040       -2.9283296739        1.2489519466
 C         -1.5923988761       -2.0589507660        1.1643978690
 C         -1.3980016631       -0.7441981302        0.6569377999
 N         -2.4667711455        0.1310883831        0.5509858156
 C         -2.4539386145        1.4766631705        0.8827263270
 C         -1.4247887632        2.2626608211        1.3788696837
 C         -1.6924846882        3.5932673609        1.6493815464
 C         -2.9596317936        4.1354534307        1.4452537188
 C         -4.0030645292        3.3526737412        0.9879928848
 C         -3.7536845110        2.0156811604        0.7117788529
 C         -4.5783433808        0.9390167063        0.2585843205
 C         -5.9130223115        0.7888549312       -0.0765324066
 O         -6.8925888354        1.7254340468       -0.0200710365
 C         -8.0352718990        1.1048645663       -0.4336956013
 C         -9.2913336866        1.6704617002       -0.5264650491
 C        -10.3226494015        0.8561648848       -0.9671014298
 C        -10.1025779552       -0.4777448519       -1.3039122675
 C         -8.8469862766       -1.0427642293       -1.2116221643
 C         -7.7947799914       -0.2453807269       -0.7703064285
 C         -6.3976126683       -0.4544235514       -0.5369507740
 C         -5.5367361161       -1.5481341512       -0.6968661775
 C         -4.2079591064       -1.4230830968       -0.3590805495
 C         -3.7427140684       -0.2072221136        0.1507854471
 C         -0.1186404415       -0.3830510785        0.2153175327
 C          0.9363626602       -1.2618931476        0.2874648331
 N          2.1564127318       -0.8933896349       -0.2932701823
 C          2.8158747080       -1.6080556774       -1.2739636620
 C          2.4422158755       -2.7832671208       -1.9090652494
 C          3.2911655500       -3.2861403828       -2.8765262592
 C          4.4767821672       -2.6362532222       -3.2155123616
 C          4.8453894484       -1.4550706843       -2.5999483071
 C          4.0080966523       -0.9336492935       -1.6244191184
 C          4.0578949251        0.2408797293       -0.8043474833
 C          4.9540597480        1.2794329764       -0.6098680858
 O          6.1386007720        1.4806043775       -1.2404249458
 C          6.6724904991        2.6094052870       -0.6928757404
 C          7.8837899353        3.1879481669       -1.0208362171
 C          8.2453973219        4.3342273111       -0.3334394742
 C          7.4226425388        4.8831730771        0.6471768350
 C          6.2121960845        4.3048187341        0.9737087819
 C          5.8281766003        3.1518406319        0.2986223454
 C          4.6937808262        2.2738588672        0.3555266604
 C          3.5377092547        2.2315479219        1.1407460038
 C          2.6341479489        1.2076878192        0.9657099370
 C          2.8888403200        0.2331623687       -0.0017443097
 N          1.4992962948       -4.7781302196        1.3273095672
 C          2.4135217068       -5.6778701155        1.5644132007
 H          4.4933861718       -6.1729203265        1.8374550590
 H          5.1819611553       -3.7653820593        1.6793309437
 H          3.4684430538       -2.0509119021        1.3093731327
 H         -0.6906743042       -3.9187028192        1.6522562290
 H         -2.5680755044       -2.3350780101        1.5319117334
 H         -0.4450172098        1.8545315386        1.5644190032
 H         -0.9020846810        4.2224327800        2.0299864802
 H         -3.1276832461        5.1797043080        1.6614712194
 H         -4.9931334048        3.7582226476        0.8495590075
 H         -9.4561282284        2.7029811094       -0.2634995954
 H        -11.3181000020        1.2649557676       -1.0501004679
 H        -10.9337769653       -1.0781189117       -1.6422320045
 H         -8.6777599388       -2.0763498414       -1.4715637356
 H         -5.9171847411       -2.4765042258       -1.0916759656
 H         -3.5292280130       -2.2474419139       -0.5075601313
 H          0.0244633732        0.5691882403       -0.2739571503
 H          1.5244676407       -3.2881705238       -1.6525406896
 H          3.0288328784       -4.2026120206       -3.3834186973
 H          5.1126346324       -3.0636345731       -3.9762533548
 H          5.7572943410       -0.9425015146       -2.8643394921
 H          8.5165220386        2.7569055054       -1.7799616126
 H          9.1861487909        4.8113592463       -0.5622643332
 H          7.7415841645        5.7779047979        1.1604742201
 H          5.5768943681        4.7311255817        1.7348704212
 H          3.3673655858        2.9924490257        1.8859737502
 H          1.7520650387        1.1380878645        1.5823019933
 H          2.0519240815       -6.6942950039        1.6669977074
  79
  -131.358292200000       0.154198222517738      !
 C          3.8028990942       -5.7681953165        1.7430833416
 C          4.2012996850       -4.4307186702        1.6122234015
 C          3.2629374368       -3.4542958542        1.4229967799
 C          1.8828189108       -3.7992831602        1.3335397275
 C          0.8331228981       -2.8798343327        1.0978013027
 C         -0.4998524960       -3.2580020250        1.4376526479
 C         -1.5399058878       -2.3842181224        1.4068519911
 C         -1.3246837757       -1.0356143274        1.0190470086
 N         -2.3681770040       -0.1178443948        0.9791942160
 C         -2.3094820349        1.1698482767        1.4777048806
 C         -1.3076112277        1.7863617642        2.2123773617
 C         -1.5150503620        3.0898914021        2.6247377659
 C         -2.6952860089        3.7670475231        2.3223017196
 C         -3.7125801964        3.1503144017        1.6179660053
 C         -3.5246823511        1.8409215427        1.1984538229
 C         -4.3435991196        0.9015751340        0.4941751200
 C         -5.6009665949        0.9237375486       -0.0846746518
 O         -6.4832329733        1.9536031152       -0.1089368279
 C         -7.5639211309        1.5103137889       -0.8133683586
 C         -8.7089194254        2.2276541021       -1.0989808530
 C         -9.6898243809        1.5874780259       -1.8387574640
 C         -9.5292859144        0.2747037017       -2.2763806086
 C         -8.3849265014       -0.4418966651       -1.9900289492
 C         -7.3849179045        0.1795642452       -1.2488809135
 C         -6.0910415546       -0.2088126614       -0.7692689074
 C         -5.3195498041       -1.3711387174       -0.8852630533
 C         -4.0668206071       -1.4165638299       -0.3154543788
 C         -3.5930563712       -0.2995362520        0.3773250578
 C         -0.0496619999       -0.6516753326        0.5999511149
 C          1.0023381780       -1.5410455538        0.5820086200
 N          2.1912667120       -1.1361514192       -0.0316349364
 C          2.8184712977       -1.7964029127       -1.0754042212
 C          2.5137262799       -3.0152438153       -1.6626608735
 C          3.3102693801       -3.4425538666       -2.7087452039
 C          4.3773900588       -2.6762754291       -3.1732412284
 C          4.6693206933       -1.4474387146       -2.6125308809
 C          3.8819855631       -1.0005374556       -1.5611860185
 C          3.8747075566        0.2005776260       -0.7801215874
 C          4.6114769555        1.3734131464       -0.7546905342
 O          5.6411292448        1.7241926027       -1.5660574022
 C          6.0226564882        2.9738400402       -1.1757887265
 C          7.0310570795        3.7371208816       -1.7318845376
 C          7.2504116194        4.9914596066       -1.1872950056
 C          6.4876172932        5.4651891117       -0.1223304117
 C          5.4814714728        4.7014170588        0.4341102936
 C          5.2418316142        3.4383064681       -0.0960104018
 C          4.3133790454        2.3818945011        0.1852556522
 C          3.2973635916        2.2080035455        1.1309992133
 C          2.5506338437        1.0520431269        1.1202834167
 C          2.8158262705        0.0763439945        0.1559008697
 N          1.5319600510       -5.1028565071        1.5216844732
 C          2.4360386444       -6.0223370771        1.7132217090
 H          4.5160467218       -6.5646511658        1.8729959664
 H          5.2488371205       -4.1727529311        1.6819669996
 H          3.5552225067       -2.4174100492        1.4063492122
 H         -0.6421321953       -4.2771085403        1.7598767497
 H         -2.5272021334       -2.6877470057        1.7189970126
 H         -0.4026387624        1.2594750575        2.4695661131
 H         -0.7490614175        3.5912911474        3.1970036408
 H         -2.8182696507        4.7857839367        2.6578553699
 H         -4.6370307930        3.6623036180        1.4007502039
 H         -8.8262275737        3.2438714497       -0.7584586675
 H        -10.5973363415        2.1187043215       -2.0819603837
 H        -10.3173867894       -0.1872741250       -2.8518787519
 H         -8.2615178791       -1.4582603344       -2.3310809870
 H         -5.7046037379       -2.2176143049       -1.4311522538
 H         -3.4475228615       -2.2930826574       -0.4202011272
 H          0.0866336285        0.3378467752        0.1882003143
 H          1.6854427871       -3.6118906701       -1.3162932597
 H          3.0984136195       -4.3916720613       -3.1776503705
 H          4.9773344118       -3.0478841124       -3.9902641503
 H          5.4835273384       -0.8404425718       -2.9768365794
 H          7.6165647240        3.3659848884       -2.5576134934
 H          8.0285229283        5.6159713778       -1.5989471893
 H          6.6892672480        6.4500431013        0.2715394557
 H          4.8901041035        5.0704210624        1.2580056600
 H          3.1061961118        2.9782002955        1.8611949793
 H          1.7768913792        0.8920664101        1.8532830128
 H          2.0577672360       -7.0311073879        1.8308567383
  79
  -131.357789580000       9.059228389701905E-002 !
 C          3.8945205098       -5.7002213170        1.9929151682
 C          4.2551586123       -4.3617069452        1.7846036193
 C          3.2936965046       -3.4328680236        1.4989168494
 C          1.9274170220       -3.8273812974        1.3942342261
 C          0.8578910284       -2.9477910865        1.1090856322
 C         -0.4748672896       -3.3510056893        1.4241142033
 C         -1.5263295604       -2.4903695650        1.3930246029
 C         -1.3223364768       -1.1323244940        1.0343775406
 N         -2.3636943442       -0.2105568782        1.0245534340
 C         -2.2850373555        1.0616527566        1.5589873401
 C         -1.2769609554        1.6377286946        2.3177826213
 C         -1.4622292743        2.9331265959        2.7641455546
 C         -2.6273165249        3.6409167273        2.4729775406
 C         -3.6498756946        3.0647066322        1.7425297054
 C         -3.4828130956        1.7648549346        1.2862188321
 C         -4.3100245264        0.8634672660        0.5430374942
 C         -5.5489825071        0.9377233190       -0.0697142889
 O         -6.3954003072        1.9971116821       -0.0975191269
 C         -7.4584322557        1.6124832226       -0.8605555596
 C         -8.5594398050        2.3818878150       -1.1818497870
 C         -9.5242420791        1.8016863236       -1.9889763186
 C         -9.3916325527        0.4958238097       -2.4554193329
 C         -8.2919771626       -0.2733535552       -2.1319434882
 C         -7.3076793899        0.2880687091       -1.3249640113
 C         -6.0488400847       -0.1588871402       -0.8035424785
 C         -5.3087885903       -1.3406503973       -0.9265600236
 C         -4.0729793513       -1.4366989327       -0.3264082246
 C         -3.5847976558       -0.3506167440        0.4043300792
 C         -0.0521311238       -0.7308877629        0.6163222282
 C          1.0083794642       -1.6084327416        0.5880833679
 N          2.1864240863       -1.1892665631       -0.0368111917
 C          2.7951714328       -1.8259759225       -1.1052254684
 C          2.5115823522       -3.0555293208       -1.6800977750
 C          3.2767244749       -3.4515453733       -2.7616493255
 C          4.2923248930       -2.6446947916       -3.2707462130
 C          4.5676270576       -1.4093096378       -2.7154549149
 C          3.8131763793       -0.9939912980       -1.6277574466
 C          3.8042238181        0.1998232732       -0.8345913220
 C          4.5127483745        1.3903293425       -0.8175247864
 O          5.4977077494        1.7836249332       -1.6642321866
 C          5.8686566398        3.0325207273       -1.2608851730
 C          6.8331727890        3.8330600351       -1.8420506015
 C          7.0510403645        5.0771190786       -1.2737610579
 C          6.3298657174        5.5052065955       -0.1615361455
 C          5.3656320924        4.7055244520        0.4181235802
 C          5.1275870427        3.4527004573       -0.1361512180
 C          4.2335645246        2.3706039422        0.1576816239
 C          3.2618857567        2.1565846841        1.1407676197
 C          2.5381470728        0.9863625202        1.1341991296
 C          2.7871405487        0.0365539148        0.1404755131
 N          1.6133310600       -5.1316732267        1.6381946327
 C          2.5394940257       -6.0045409819        1.9204111553
 H          4.6272685211       -6.4603515374        2.2048297237
 H          5.2907125624       -4.0638050136        1.8719236241
 H          3.5546645890       -2.3905593298        1.4219457656
 H         -0.6062382361       -4.3761855767        1.7313869601
 H         -2.5139723415       -2.8125104740        1.6849844715
 H         -0.3848384023        1.0855458947        2.5667649595
 H         -0.6910745581        3.4037003957        3.3553654061
 H         -2.7335144639        4.6518402798        2.8366974293
 H         -4.5618681444        3.6010030807        1.5314180488
 H         -8.6542604747        3.3928697805       -0.8194251370
 H        -10.3961073418        2.3755902799       -2.2638146969
 H        -10.1654368755        0.0815501112       -3.0842227197
 H         -8.1899879224       -1.2840086020       -2.4962090317
 H         -5.7026440406       -2.1616428451       -1.5042451219
 H         -3.4760322595       -2.3277851364       -0.4382967990
 H          0.0724480718        0.2645190570        0.2148697262
 H          1.7224748107       -3.6826086541       -1.2975164005
 H          3.0789696330       -4.4064121176       -3.2250604022
 H          4.8659741200       -2.9903066996       -4.1175920164
 H          5.3444080433       -0.7739038811       -3.1117324276
 H          7.3881088872        3.4970370164       -2.7031762540
 H          7.7962116077        5.7292765799       -1.7031111220
 H          6.5302674798        6.4826980468        0.2508788845
 H          4.8048552052        5.0389694378        1.2777756150
 H          3.0868615377        2.9068477162        1.8952719935
 H          1.7964204753        0.7935601690        1.8920738159
 H          2.1914698229       -7.0180682848        2.0820095795
  79
  -131.357210460000       4.908469356233588E-002 !
 C          3.8611053206       -5.3052819587        1.5997316675
 C          4.2334282524       -3.9684725225        1.4027394689
 C          3.2740621054       -3.0061971158        1.2497764688
 C          1.8941919691       -3.3647940465        1.2662286742
 C          0.8135727089       -2.4686655118        1.0894451258
 C         -0.4867717266       -2.8673744674        1.5205685660
 C         -1.5489648966       -2.0223613017        1.5006638505
 C         -1.3990211882       -0.6851335627        1.0452888612
 N         -2.5077902404        0.1450272253        0.9480522222
 C         -2.5928322195        1.4581580279        1.3678707012
 C         -1.6510286841        2.2391039067        2.0211510748
 C         -2.0117316331        3.5272505671        2.3740544986
 C         -3.2802662616        4.0297335268        2.0889885334
 C         -4.2321595629        3.2521141839        1.4557048297
 C         -3.8919833852        1.9558154221        1.0963646885
 C         -4.6075892063        0.8857888844        0.4692494720
 C         -5.8720313648        0.7153217949       -0.0699299389
 O         -6.8835371161        1.6181682422       -0.1195738353
 C         -7.9143700901        0.9993728435       -0.7651060640
 C         -9.1517114409        1.5416255271       -1.0517018163
 C        -10.0566918117        0.7363599770       -1.7246471849
 C         -9.7345073336       -0.5668174397       -2.0971097281
 C         -8.4979514668       -1.1085039434       -1.8107410943
 C         -7.5717784717       -0.3184921292       -1.1368860536
 C         -6.2272517915       -0.5071023220       -0.6803658020
 C         -5.3143872375       -1.5644804156       -0.7693450442
 C         -4.0532590211       -1.4180896853       -0.2380358177
 C         -3.7146714966       -0.2171774513        0.3911565164
 C         -0.1471814100       -0.2694429593        0.5770901186
 C          0.9179217157       -1.1379301389        0.5390205168
 N          2.0693343899       -0.7597117573       -0.1659158128
 C          2.5433766201       -1.4391453383       -1.2701813544
 C          2.0128757177       -2.5487607384       -1.9114082199
 C          2.6792095347       -3.0226465721       -3.0252840410
 C          3.8385712747       -2.4087111494       -3.4964646724
 C          4.3645511400       -1.2951181681       -2.8689097491
 C          3.7104989967       -0.8022485687       -1.7491425697
 C          3.9421488217        0.3094186474       -0.8745598553
 C          4.9224987287        1.2785240105       -0.7423787459
 O          6.0249407722        1.4493088538       -1.5142122865
 C          6.7074838426        2.4974666309       -0.9721688754
 C          7.9061486504        3.0161360298       -1.4232803086
 C          8.4420877782        4.0794349059       -0.7168938380
 C          7.7992330652        4.6056260750        0.4009655499
 C          6.6000510779        4.0881846263        0.8491652125
 C          6.0421880545        3.0191022680        0.1573433469
 C          4.8613947701        2.2157411563        0.3096186627
 C          3.8113269873        2.1943364341        1.2331322293
 C          2.8238062494        1.2408319503        1.1210472753
 C          2.8934159535        0.3110956416        0.0808958353
 N          1.5744324870       -4.6669853816        1.5126567514
 C          2.4982140707       -5.5730958738        1.6665999216
 H          4.5907399724       -6.0891836179        1.7125512147
 H          5.2799716442       -3.6975515123        1.3922114682
 H          3.5604688162       -1.9704888267        1.1843847369
 H         -0.5855747257       -3.8755086084        1.8896009401
 H         -2.5120518068       -2.3373759827        1.8720574758
 H         -0.6731537501        1.8506272557        2.2594826310
 H         -1.2974286747        4.1548612721        2.8853130170
 H         -3.5229451736        5.0411047806        2.3785517133
 H         -5.2205658747        3.6310794665        1.2471257710
 H         -9.3962222380        2.5510431655       -0.7625947782
 H        -11.0326724755        1.1286880890       -1.9664912902
 H        -10.4686372417       -1.1609831536       -2.6203977020
 H         -8.2480498148       -2.1177285635       -2.0998585572
 H         -5.5986243717       -2.4783552634       -1.2659361711
 H         -3.3258898689       -2.2091068513       -0.3259193577
 H         -0.0450759687        0.7130435284        0.1384065540
 H          1.1137019911       -3.0227960612       -1.5508133921
 H          2.2906689109       -3.8853972891       -3.5453021572
 H          4.3278780574       -2.8099610044       -4.3712515344
 H          5.2569667217       -0.8115619215       -3.2348559963
 H          8.3986496782        2.6013114579       -2.2880651534
 H          9.3791513555        4.5075442964       -1.0389074987
 H          8.2516687800        5.4337028382        0.9256705891
 H          6.1053477171        4.4974465716        1.7165695038
 H          3.7881047638        2.9163082078        2.0341483656
 H          2.0163129716        1.1915443675        1.8348921179
 H          2.1400947736       -6.5796815455        1.8483094087
