94
 energy: -153.783033363602 gnorm: 0.000118846220 xtb: 6.7.1 (edcfbbe)
N            2.92403628499018       -3.18187574903277       -1.17298992302417
C            2.33814819160061       -2.26577791934959       -0.78428965433137
C            1.62981984980342       -1.15815888970118       -0.32227671638579
C            2.29973065960980        0.02682443945347        0.00262996997264
N            3.69651868201328        0.04305417942574        0.00428911378326
C            4.51056820234570       -0.80825162458427        0.72307992292306
C            4.16663037919990       -1.80377579892408        1.62548523149710
C            5.19138624208115       -2.50275741321550        2.23525212733715
C            6.52524057248945       -2.20995014884890        1.96918763425206
C            6.87358672976277       -1.19399958022134        1.09507600990664
C            5.86263454256634       -0.48376304725425        0.46942913329486
C            5.85088674813179        0.61963994706628       -0.45636311472481
C            6.84651774527157        1.35294849720504       -1.07995910184593
C            6.47669624256027        2.36070842145970       -1.95472500852446
C            5.13700873930458        2.62281580944402       -2.22347137407074
C            4.12735268593640        1.90037014791974       -1.61586744408686
C            4.49223537526143        0.91294190669934       -0.71279762803013
C            1.60166398815391        1.19576134200018        0.32564331705467
C            2.28275363694579        2.31979552306617        0.78915591246785
N            2.84607220376167        3.24933304914779        1.17923392941793
C            0.15176086898255        1.17956868591329        0.31227244342219
N           -0.55214617673053        2.32354678594085        0.70448093039933
C           -0.50209810966666        3.55238998159790        0.08114709966018
C            0.31002179222054        3.98168905939556       -0.96042839664426
C            0.13316877525147        5.26859642762558       -1.42918157776738
C           -0.83579746738390        6.10999597598074       -0.88776981311029
C           -1.66201144491915        5.68163540781960        0.13615091563256
C           -1.49963447506137        4.39598478978281        0.62623192672615
C           -2.17216841438822        3.62930585663072        1.63949227899761
C           -3.22251180963856        3.89392799016580        2.50358985414593
C           -3.61281283078311        2.90884465905141        3.39401795929999
C           -2.94611910938209        1.68790119886972        3.45265288086937
C           -1.89462887086423        1.40330568485824        2.60293769879299
C           -1.53796424666175        2.36536672511834        1.66855724367296
C           -0.51942901870432       -0.00599060021605       -0.00163834758069
N           -1.92183313694087       -0.02156776479762       -0.00417881057142
C           -2.73602934001381        0.83164309703255       -0.72029453316635
C           -2.39427272380614        1.81914960038739       -1.63321208461136
C           -3.41797782599978        2.53365490882346       -2.22482653927963
C           -4.75200794986158        2.25667974039083       -1.94131817318165
C           -5.09896356337182        1.23694032643319       -1.07407687887993
C           -4.08783068753939        0.51386221611085       -0.46099228994135
C           -4.07772739333629       -0.59604844243242        0.45268077154427
C           -5.07567745142288       -1.33685312782941        1.06617652135941
C           -4.71043474256900       -2.35004515583830        1.93356145232640
C           -3.37157745295605       -2.60343952405914        2.21643954296466
C           -2.36086732224727       -1.87108319163717        1.62433526527875
C           -2.72034064199640       -0.88951280947766        0.71180193159335
C            0.17981889796735       -1.17563807025114       -0.31304742200166
N           -0.49589225884904       -2.33599917074941       -0.70670017343045
C           -0.41700684571723       -3.56350637957815       -0.08366988791206
C            0.40205062629861       -3.97265907756940        0.96057146958771
C            0.25644567591454       -5.26401853577018        1.42786480729094
C           -0.68894708447275       -6.12939427134202        0.88261704818475
C           -1.52239855208798       -5.72140081818395       -0.14376670730276
C           -1.39103424272919       -4.43171540888765       -0.63254210900437
C           -2.07923491270802       -3.68169200234705       -1.64775013163766
C           -3.11951905225860       -3.97239715654407       -2.51562922459691
C           -3.53159085049956       -2.99704600108036       -3.40695513540680
C           -2.89583723530061       -1.75956332194296       -3.46270384084291
C           -1.85487742986111       -1.44884483607128       -2.60919882536249
C           -1.47705951932439       -2.40210249377663       -1.67409422860436
H            3.13553662246058       -2.02584930911521        1.85214627397940
H            4.95087296589223       -3.28994481589843        2.93350709075120
H            7.29889629211638       -2.77973973788966        2.46122499501666
H            7.90910124869438       -0.95644107119504        0.90579621812680
H            7.88683062015094        1.13925743598284       -0.88855242973643
H            7.23805364691896        2.94809066017026       -2.44526318196920
H            4.87988419543221        3.40419695248717       -2.92234029898612
H            3.09189529381205        2.09868210101340       -1.84467145538852
H            1.06027612087361        3.33761061921479       -1.39202129071161
H            0.75807302077311        5.62872469387528       -2.23241423145190
H           -0.94374522313571        7.11027799474778       -1.27938276204493
H           -2.42037370453237        6.33170752599164        0.54511682806122
H           -3.72174628934189        4.85058165328435        2.48255852202909
H           -4.43490939693668        3.09354657245061        4.06889324312643
H           -3.25140521800161        0.94948369909027        4.17861311211021
H           -1.35988378806640        0.46919177570580        2.67881979568068
H           -1.36587913110841        2.02464557855727       -1.88734337752609
H           -3.17429027667714        3.31872058638615       -2.92467147790230
H           -5.52495981769252        2.83804160110027       -2.42083235840800
H           -6.13428663609667        1.00347847263086       -0.87847920170228
H           -6.11503309962983       -1.12171218308236        0.87095191281082
H           -5.47279735363371       -2.94511253090101        2.41322864477433
H           -3.11376859621961       -3.38443239941636        2.91579551037698
H           -1.32896260920700       -2.05858509907488        1.87806168127175
H            1.13399230431113       -3.30991522152874        1.39534786329025
H            0.88735377704158       -5.60859566385496        2.23321892692161
H           -0.77275744399153       -7.13237587028894        1.27323196908968
H           -2.26247395530191       -6.39031325691889       -0.55584449520776
H           -3.59423644058324       -4.94149958632403       -2.49693045806641
H           -4.34623017318235       -3.20224732321364       -4.08494512633430
H           -3.21733042793767       -1.02867071236849       -4.18928929959457
H           -1.34396189281106       -0.50131948699396       -2.68271443837583
