  94
       -153.78033722
 N          2.9582846376       -3.1955645448       -1.0847849815
 C          2.3622177816       -2.2742382889       -0.7245757650
 C          1.6427191915       -1.1603935531       -0.2952185111
 C          2.3041275523        0.0360771697        0.0059693982
 N          3.7011245642        0.0605446328        0.0071516361
 C          4.5176760370       -0.7605281390        0.7564185034
 C          4.1755993281       -1.7270437730        1.6906933289
 C          5.2021691258       -2.3978210819        2.3283059586
 C          6.5352397783       -2.1054669066        2.0574658889
 C          6.8812236497       -1.1186453205        1.1494596572
 C          5.8686521280       -0.4366737712        0.4957254687
 C          5.8527159955        0.6339189833       -0.4679413957
 C          6.8449102114        1.3512149176       -1.1150038633
 C          6.4704144590        2.3257248324       -2.0250515162
 C          5.1296638069        2.5711445438       -2.3043196541
 C          4.1230616726        1.8646651043       -1.6732171419
 C          4.4927002136        0.9102293322       -0.7369865009
 C          1.6000428564        1.2069497316        0.3060769622
 C          2.2785194828        2.3478403543        0.7324267464
 N          2.8407536509        3.2905571174        1.0914281150
 C          0.1530215504        1.1785527130        0.3028683822
 N         -0.5637004124        2.3150913496        0.6927786449
 C         -0.5486476355        3.5384288168        0.0577694089
 C          0.2489069021        3.9794357206       -0.9904588270
 C          0.0322047657        5.2542710973       -1.4746367994
 C         -0.9598429653        6.0734513065       -0.9400504299
 C         -1.7686713588        5.6345797167        0.0930504335
 C         -1.5677926776        4.3600906551        0.5979714479
 C         -2.2149264119        3.5867200596        1.6220685650
 C         -3.2685419415        3.8307673199        2.4885874150
 C         -3.6265441226        2.8449642684        3.3916946467
 C         -2.9257491361        1.6436759986        3.4603109768
 C         -1.8713220481        1.3793354892        2.6075988535
 C         -1.5462674439        2.3409028433        1.6614169697
 C         -0.5107491601       -0.0150525450       -0.0007153338
 N         -1.9130864982       -0.0329226941       -0.0104069630
 C         -2.7198821180        0.8256160488       -0.7287374973
 C         -2.3691176295        1.7946387968       -1.6579355768
 C         -3.3853102943        2.5210303814       -2.2479895906
 C         -4.7210333208        2.2728332253       -1.9467201091
 C         -5.0779934088        1.2695309560       -1.0642888716
 C         -4.0742072633        0.5345406752       -0.4532643063
 C         -4.0738169492       -0.5655057970        0.4723912864
 C         -5.0785439865       -1.2806379645        1.1047633574
 C         -4.7228195290       -2.2911451329        1.9792681998
 C         -3.3857955519       -2.5676685931        2.2490800314
 C         -2.3680341114       -1.8609619903        1.6382500922
 C         -2.7188761170       -0.8804775584        0.7210022975
 C          0.1949821711       -1.1845203367       -0.2962309679
 N         -0.4758211835       -2.3485458244       -0.6864412913
 C         -0.3991668435       -3.5741632681       -0.0602551260
 C          0.4072459319       -3.9770199262        0.9964392305
 C          0.2622382907       -5.2684978267        1.4634889284
 C         -0.6694969227       -6.1405406145        0.9049178705
 C         -1.4899097090       -5.7392906308       -0.1345281724
 C         -1.3600846385       -4.4491143974       -0.6226103896
 C         -2.0368064495       -3.7050860716       -1.6494647928
 C         -3.0606837051       -4.0030505494       -2.5345156604
 C         -3.4624963776       -3.0320472134       -3.4351665648
 C         -2.8331369177       -1.7907458533       -3.4826290247
 C         -1.8090926769       -1.4724960404       -2.6117455231
 C         -1.4414534218       -2.4219477749       -1.6688567196
 H          3.1446222259       -1.9477209467        1.9196225691
 H          4.9639078212       -3.1616419375        3.0528185781
 H          7.3103870283       -2.6525390198        2.5724397355
 H          7.9161459736       -0.8818991583        0.9560110022
 H          7.8862313725        1.1509213226       -0.9147826650
 H          7.2292554215        2.8999412378       -2.5347601233
 H          4.8694438619        3.3264080231       -3.0302814298
 H          3.0865183646        2.0496046956       -1.9087712862
 H          1.0179101765        3.3531145482       -1.4151422703
 H          0.6434950302        5.6229687354       -2.2843701688
 H         -1.0992064410        7.0647598090       -1.3445006339
 H         -2.5434339484        6.2677385016        0.4977215782
 H         -3.7950136986        4.7725170977        2.4597151898
 H         -4.4497074411        3.0142885324        4.0693268136
 H         -3.2064248327        0.9052961230        4.1961471721
 H         -1.3101517648        0.4612001592        2.6894172619
 H         -1.3394917315        1.9766678554       -1.9248342217
 H         -3.1342938359        3.2929602101       -2.9597133362
 H         -5.4879222891        2.8635935603       -2.4244282340
 H         -6.1154589540        1.0580008740       -0.8556096676
 H         -6.1157613379       -1.0479388073        0.9184488116
 H         -5.4909084575       -2.8660673564        2.4741369313
 H         -3.1351053584       -3.3464976338        2.9534272340
 H         -1.3373000087       -2.0667987675        1.8818118924
 H          1.1297178800       -3.3095874344        1.4400371737
 H          0.8832781795       -5.6085153302        2.2783491337
 H         -0.7523978127       -7.1438017925        1.2950473019
 H         -2.2187856397       -6.4138290742       -0.5573307058
 H         -3.5304260889       -4.9746877577       -2.5220687045
 H         -4.2636229151       -3.2434592785       -4.1271975329
 H         -3.1457539075       -1.0634087877       -4.2165996122
 H         -1.3023152727       -0.5223099100       -2.6782605858
