94
 energy: -153.863720500209 gnorm: 0.000130987061 xtb: 6.7.1 (edcfbbe)
N            3.01405489422517        3.14509513127177       -1.35904501342591
C            2.44830802445367        2.26306817678661       -0.89485485926467
C            1.74810169531903        1.14848986645816       -0.37842146440616
C            2.46062244461199        0.00029690846931        0.00035965802433
N            3.84832834583343        0.00044013136747        0.00055961695692
C            4.66117527077321       -0.91302792567221       -0.65577175922207
C            4.31318794129543       -1.95914218389967       -1.49319981373276
C            5.33379789099747       -2.70307867416015       -2.05472212928517
C            6.66957427677050       -2.40454883639968       -1.80423068870997
C            7.02094288746706       -1.33925730543195       -0.99858739466860
C            6.01186180952783       -0.58103649359788       -0.42179820983643
C            6.01161563919712        0.58239111681071        0.42352769205360
C            7.02037062885649        1.34086559555408        1.00055454403533
C            6.66854542262922        2.40614839196233        1.80600968215393
C            5.33263402741932        2.70440478346495        2.05610498658398
C            4.31234343834011        1.96019068535823        1.49437059238879
C            4.66079090492432        0.91409761051812        0.65710690747309
C            1.74825005123772       -1.14805864764196        0.37892821506427
C            2.44859519830521       -2.26249146416410        0.89556955873898
N            3.01421926497290       -3.14439451085482        1.36002965744124
C            0.34276522147233       -1.15669594143963        0.37676568664793
N           -0.34248097408015       -2.29835483774706        0.77898052627649
C           -1.39518703755100       -2.32460597539666        1.68240884839574
C           -1.79343580714130       -1.35617452485773        2.58871321805615
C           -2.88358677049253       -1.63585498879543        3.39112783980481
C           -3.53997693102474       -2.86049482443726        3.31808940166375
C           -3.10183446237753       -3.85318350733819        2.46295166676016
C           -2.01494329915900       -3.59000569293288        1.64194268433302
C           -1.29096325978702       -4.37126497884177        0.67607850873980
C           -1.44213930831674       -5.66384950021087        0.19546960762407
C           -0.57316578236365       -6.11390087664890       -0.77909770435405
C            0.42529176028739       -5.28682908918177       -1.28328797663812
C            0.59038102320195       -3.99394601518767       -0.82209473131871
C           -0.26161904575350       -3.54733852465084        0.17393164488782
C           -0.36316485113645       -0.00001866195771       -0.00005537186168
N           -1.75988979879194       -0.00017782679449       -0.00028992665093
C           -2.57108178191060        0.88812317260409        0.68602742948973
C           -2.22334459921166        1.90531960557349        1.56029739308246
C           -3.24256267320026        2.65128693262711        2.12040838970113
C           -4.57795363731409        2.37531932188444        1.84317308988793
C           -4.92985273863095        1.32710223702308        1.01586120169822
C           -3.92218363163944        0.57106266022908        0.43435816982546
C           -3.92188037704027       -0.57203968988570       -0.43564150257514
C           -4.92914077822305       -1.32839910351302       -1.01743743362413
C           -4.57666725771060       -2.37656053731823       -1.84457590753885
C           -3.24110698362031       -2.65214325200283       -2.12137871362549
C           -2.22228958408335       -1.90583742185401       -1.56099121871088
C           -2.57060683678724       -0.88871511311864       -0.68686641871167
C            0.34262333203646        1.15681106019718       -0.37666360050817
N           -0.34275119677881        2.29832557647870       -0.77907809081197
C           -1.39519315949745        2.32435158413362       -1.68281719199558
C           -1.79292792890779        1.35585254675067       -2.58927660465243
C           -2.88290806297125        1.63529203476758       -3.39200531748142
C           -3.53962379301933        2.85976506614406       -3.31911488425389
C           -3.10198202928137        3.85253368111081       -2.46381573777608
C           -2.01527649502288        3.58959545883012       -1.64248474437985
C           -1.29179991036949        4.37098325785749       -0.67634532606103
C           -1.44347174260291        5.66348950485126       -0.19567984115050
C           -0.57492579648564        6.11369464629870        0.77919846953556
C            0.42360092907502        5.28685496035833        1.28363253675883
C            0.58918827866125        3.99405708428839        0.82238000229560
C           -0.26239291075193        3.54729546479943       -0.17393515662954
H            3.28194397521518       -2.18830773285954       -1.71591383296749
H            5.08748927839399       -3.52977197301083       -2.70381710706774
H            7.43914618838252       -3.01039081534610       -2.25809323546204
H            8.05683626553757       -1.09369654818710       -0.82210551983609
H            8.05636678689795        1.09551372178999        0.82438469706865
H            7.43785828790970        3.01219966093464        2.26003263300356
H            5.08596260868722        3.53110292247382        2.70505646691258
H            3.28098931353727        2.18914696979904        1.71678833212699
H           -1.27002012569031       -0.41698624832192        2.68068693098330
H           -3.22623164837788       -0.88827320635706        4.09049941291374
H           -4.39112732366627       -3.04112647248236        3.95703258770445
H           -3.58798008542997       -4.81614638419486        2.43421325479557
H           -2.22774958177808       -6.29822829800649        0.57614013311639
H           -0.67052294752836       -7.11804175625526       -1.16325453412536
H            1.08485822168241       -5.65852802961291       -2.05286741038598
H            1.36236157716289       -3.36378619790170       -1.23683988002969
H           -1.19445942784220        2.11375724038640        1.81289402970358
H           -2.99321787538333        3.46072652039676        2.79000357962671
H           -5.34683425682343        2.98197996015060        2.29731948336439
H           -5.96608946660872        1.09417651288263        0.82458097048497
H           -5.96550818895289       -1.09576847919764       -0.82650585791677
H           -5.34522249535978       -2.98348064130152       -2.29892625210335
H           -2.99130795854731       -3.46154816916923       -2.79084641138766
H           -1.19326257338970       -2.11396873833559       -1.81326198017297
H           -1.26924109857959        0.41680349773341       -2.68113402373617
H           -3.22514506881807        0.88765760618985       -4.09152015428811
H           -4.39061123174023        3.04021630608451       -3.95832530532916
H           -3.58838181590236        4.81537154415671       -2.43518208009444
H           -2.22912914448040        6.29769065267668       -0.57654856909790
H           -0.67268000344971        7.11777521987505        1.16341260784446
H            1.08283397016654        5.65867459991409        2.05343993774372
H            1.36121347584091        3.36407042621093        1.23730640410407
