94
 energy: -153.863720813918 gnorm: 0.000078111731 xtb: 6.7.1 (edcfbbe)
N            2.90454022295579       -3.14123264043976       -1.29227237421310
C            2.32941932736639       -2.25614681099389       -0.84577801811248
C            1.61669427817834       -1.13876813865676       -0.35310011942536
C            2.31587132125747        0.02545693158032        0.00093891263929
N            3.70341529219155        0.04128223591274        0.00257066323452
C            4.52594081598429       -0.85044338412425        0.67679947106990
C            4.18924949218506       -1.88605222480927        1.53170872588967
C            5.21767042772190       -2.60801846801736        2.10748133878181
C            6.55021769568903       -2.29765159902009        1.85432621450815
C            6.89011742417631       -1.24176773928742        1.03156993902025
C            5.87300923425090       -0.50598650634121        0.44002190863223
C            5.86060314450417        0.64258532260042       -0.42527000438012
C            6.86156092612388        1.40354661733053       -1.01248012588396
C            6.49891882963839        2.45023287471092       -1.83728176163563
C            5.16015744711785        2.72683926009552       -2.09675156459915
C            4.14759650963606        1.97957591035944       -1.52516184307338
C            4.50641967578075        0.95317932796425       -0.66813608010064
C            1.58974748207600        1.17360652095555        0.35364758288110
C            2.27570673846224        2.30687383641737        0.84799839968575
N            2.82920926813051        3.20512362045624        1.29551608542980
C            0.18431443750595        1.16649289396141        0.34859037154571
N           -0.51460944705229        2.30942223511329        0.72313589684724
C           -0.45014002074441        3.54355284005356        0.08615608411189
C            0.40077891592009        3.97819137444422       -0.91601863756702
C            0.21789185179311        5.25594071661436       -1.41146887901891
C           -0.79687646705071        6.07944175012167       -0.93480141866896
C           -1.66447454562529        5.64066018935018        0.04611501947311
C           -1.49544975175038        4.36360199761507        0.56100848631269
C           -2.21273033085912        3.59619944212002        1.54283512273220
C           -3.30942903307768        3.86247680523949        2.34964396741302
C           -3.73679225158236        2.88525712169118        3.22775698518367
C           -3.06026460839480        1.67441088858649        3.33762640620428
C           -1.96030815194070        1.39212163213040        2.54964053592633
C           -1.57274841490057        2.34268755611332        1.62008691282118
C           -0.50808289122401       -0.00635804977741       -0.00297558925885
N           -1.90475975769591       -0.02112295727325       -0.00588250984078
C           -2.72236065858384        0.84648847959007       -0.71078237251679
C           -2.38194956692479        1.84391070491425       -1.61037535169681
C           -3.40626554787747        2.57227365162171       -2.18416184086987
C           -4.73946561860588        2.29748131816416       -1.89542121283100
C           -5.08403944439618        1.26717412274661       -1.04290313179404
C           -4.07113292240264        0.52907785827151       -0.44760890433545
C           -4.06259198251511       -0.59324047510511        0.44897390940109
C           -5.06458487685068       -1.34030793801980        1.05146675931067
C           -4.70479973204572       -2.36687421155817        1.90218665658074
C           -3.36713408614775       -2.62964686389882        2.18125728078682
C           -2.35343875618607       -1.89203826335215        1.60041494647522
C           -2.70903593312378       -0.89724884897371        0.70382074572527
C            0.21128933268975       -1.16349354998475       -0.35146369925277
N           -0.46002043934545       -2.32289619287906       -0.72542644862388
C           -0.36154143794199       -3.55567366753750       -0.09038973760170
C            0.49640390534018       -3.96601310592380        0.91607597744883
C            0.35008549944492       -5.24977986068626        1.40801778295305
C           -0.63618583772829       -6.10302815789399        0.92388664014668
C           -1.51176032771224       -5.68873921180071       -0.06058486972802
C           -1.37921393296008       -4.40593166220525       -0.57194074541880
C           -2.11459255447559       -3.65827056189514       -1.55560019826720
C           -3.19827492668758       -3.95652519306537       -2.36880277951521
C           -3.65120914423447       -2.99095833720562       -3.24695557028530
C           -3.01227741265322       -1.75926920256074       -3.35003087902728
C           -1.92545956380105       -1.44499288495419       -2.55592388922903
C           -1.51273177217553       -2.38558839316161       -1.62704685084106
H            3.16058178755294       -2.12390122590902        1.75692504848223
H            4.98002231514221       -3.42661021650272        2.76993014108557
H            7.32619278834970       -2.88646094689980        2.31955653461445
H            7.92327147111333       -0.98643975162100        0.85291055294713
H            7.89999453845367        1.17438791002684       -0.82900780758431
H            7.26195041640385        3.05818193753552       -2.29928931324205
H            4.90507133051222        3.53876896440061       -2.76091014604472
H            3.11423053515547        2.19116689084666       -1.75521147657429
H            1.18543593702522        3.35027684384873       -1.30975061133521
H            0.87630960784452        5.61831840815859       -2.18646731229784
H           -0.90799809838358        7.07159572987257       -1.34546550934513
H           -2.46256415777652        6.27176374666176        0.40568713026273
H           -3.81149505878683        4.81594097678482        2.29226488145937
H           -4.59539088810213        3.06805014875342        3.85602702362151
H           -3.39498339600398        0.93988531410189        4.05444680918560
H           -1.42168361979567        0.46471116853152        2.66948488705933
H           -1.35473887155244        2.05045838248105       -1.87136485830822
H           -3.16274662302008        3.36679865070777       -2.87346636770296
H           -5.51248281587510        2.89043430255417       -2.36051323830457
H           -6.11860377916245        1.03444631101078       -0.84254739623843
H           -6.10256651737713       -1.11707997167248        0.85808449005922
H           -5.46915430391387       -2.96639836535193        2.37314457526699
H           -3.11156814542311       -3.42184025046543        2.86889750788584
H           -1.32279989784850       -2.08947156616453        1.85458483798469
H            1.25874681284705       -3.31490873815011        1.31596082189966
H            1.01489274860802       -5.59335728048968        2.18611194543354
H           -0.71889109417933       -7.09909846061115        1.33175027989064
H           -2.28831187596536       -6.34317032624674       -0.42557511328801
H           -3.67063730598488       -4.92533272434215       -2.31632300777086
H           -4.50024992103711       -3.19890408039508       -3.88037951281685
H           -3.36610048395556       -1.03359092131822       -4.06670012708445
H           -1.41560124460152       -0.50095574686160       -2.67117806129554
