94
 energy: -127.782034169945 gnorm: 0.000062071244 xtb: 6.7.1 (edcfbbe)
C           -7.23200408200627        1.41125784002241        0.35687562565389
C           -5.89468297345050        0.80278207465682        0.08236375121416
C           -5.15460126507221        1.19645428940369       -1.05255324795451
C           -3.92420054774331        0.66215452253387       -1.32136862261203
C           -3.36958799213433       -0.32549574480742       -0.47646690373681
N           -2.11766393000861       -0.85791801912735       -0.72166930876090
C           -1.88084592294646       -2.20722957219009       -0.52681409048879
C           -0.58179435672913       -2.65028572062710       -0.22861905706300
C           -0.33116197824240       -3.97924185609022        0.00737330169134
C           -1.35841351443824       -4.92888355408655       -0.04647090501396
C           -1.09564504555293       -6.37908666098178        0.20691564467101
C           -2.64970873549507       -4.48651597716075       -0.35836513527210
C           -2.91746599033883       -3.16096656429084       -0.59448490223045
C           -1.17366809714639       -0.06865653059108       -1.42464098796037
C           -0.93002868978006       -0.48323951212518       -2.75385992287201
C           -0.35398203460153        0.35480460689507       -3.66913562847338
C            0.01752540915345        1.64343433746164       -3.27694911802457
C           -0.08684655225580        1.99882602989819       -1.93614960302489
C           -0.63114567120588        1.16725330658962       -0.97457715613149
C           -0.58262218820030        1.64629336779255        0.47725006289862
C            0.69277945668153        2.46243865360750        0.70571503618942
C            0.62291716393430        3.84778249259603        0.90619647428537
C            1.70600527332342        4.61424496981784        1.28317178430893
C            2.94188769451467        4.01820287115978        1.48747479877116
C            3.06735635670119        2.66972055717660        1.20979855581087
C            1.98534393525856        1.90103420921097        0.79025249660946
N            2.30599871079063        0.56848282953238        0.37882671261592
C            2.97477364239365       -0.24293516720114        1.29526842682030
C            3.96941015285219       -1.15263730237016        0.91349787758411
C            4.58110971382157       -1.96108156630263        1.85093629864233
C            4.24982610104983       -1.89277558509599        3.19799798807518
C            4.90017974762825       -2.77979385688647        4.21451683547194
C            3.29084177905425       -0.95587098496785        3.58293495407292
C            2.66989095838446       -0.14596090709873        2.65820909599168
C            2.49075380714768        0.37481238072163       -1.00002585764718
C            2.35761408183007       -0.89955470804113       -1.56048217193928
C            2.57818849951631       -1.10153809291879       -2.90966608421130
C            2.93783409728760       -0.05444489214906       -3.74489382939623
C            3.20427584692530       -0.27017927241358       -5.20297735536787
C            3.06048351743348        1.21649928036530       -3.18479412761669
C            2.84428631864116        1.43038409130234       -1.83775926612057
C           -1.87838596477992        2.46451300089394        0.70903584607036
C           -2.11209225819956        2.90784566258409        2.15282368347699
C           -2.07865118576915        1.70956856422733        3.09220838606158
C           -0.74569537551278        0.99105345734033        2.92610672085934
C           -0.60082110441322        0.48803510441964        1.49198523844814
C           -4.11521225159852       -0.72724033965207        0.66538193211586
C           -5.33736730101054       -0.16265086919701        0.92660210766915
H           -7.92178508448014        1.20410590960376       -0.46306389497479
H           -7.14916520804311        2.49543688477974        0.44654050122796
H           -7.65865842266049        1.01761226927941        1.27625170084879
H           -5.57541652484202        1.93332751486026       -1.72151213501093
H           -3.36896447134383        0.96634629996098       -2.19661459621236
H            0.20179786193894       -1.91322687225634       -0.16722012024444
H            0.67305260494041       -4.29737089927549        0.24954330998367
H           -0.06219816638269       -6.54213708035075        0.50209384816545
H           -1.29600325637300       -6.96424863386630       -0.69167449970286
H           -1.74899163288061       -6.75477027094104        0.99448920103315
H           -3.45016006048978       -5.20982969140612       -0.42648642929637
H           -3.91253144296444       -2.84177014007765       -0.86704258131487
H           -1.28093637245643       -1.46341512189428       -3.04711401785946
H           -0.21309760918473        0.03262808100911       -4.68998055824034
H            0.41639312121468        2.34335201535088       -3.99363133274143
H            0.29073111670603        2.96440247121427       -1.63093909031683
H           -0.31199066436581        4.35921952994228        0.75249997692080
H            1.58398093390152        5.67818059715437        1.42707848015606
H            3.79515652848766        4.59443916096472        1.81113195379050
H            4.03389554375903        2.18974895939486        1.28694846704845
H            4.28339521196556       -1.20722141571137       -0.11745070980068
H            5.34629726329960       -2.65147608965765        1.52378539496215
H            5.70394595244809       -3.35995513328620        3.76793564831673
H            5.30715296093425       -2.18845308203606        5.03392387207324
H            4.16840761480151       -3.46967138501629        4.63619198760052
H            3.02905002376979       -0.86182294435716        4.62724818549311
H            1.94460064992066        0.57984143406496        2.98758103066005
H            2.09053724309750       -1.73547927037564       -0.93427018691761
H            2.46561322655236       -2.09717671045369       -3.31522560709661
H            2.87544239019231       -1.25794169704155       -5.51644132068323
H            4.27186982382969       -0.18111451897997       -5.40851893631880
H            2.68906952101061        0.47997175260971       -5.80068617666521
H            3.34783215547223        2.04827892476716       -3.81207121436924
H            2.96739598400079        2.42194007418679       -1.42874050898454
H           -1.90720492470327        3.32066192439068        0.03209194954839
H           -2.71199747400066        1.82143114736384        0.42840645777079
H           -1.35248630683466        3.62130786465500        2.47468572751963
H           -3.08465661468616        3.40375478870982        2.21004027004250
H           -2.20640913931768        2.03984160170142        4.12567412523830
H           -2.89703919012581        1.02716921030400        2.85023333313561
H            0.06105520195542        1.68687082536881        3.17066697509619
H           -0.68429897911474        0.14210491181975        3.61167769395353
H            0.30170436265339       -0.11162847022333        1.39146748546757
H           -1.45261524417756       -0.15661023665291        1.29235948918321
H           -3.68891610570847       -1.45451735978975        1.34095265460655
H           -5.88135986812866       -0.46670635473050        1.81043076126237
