  94
       -127.74585868
 C         -7.0455095755        0.2478603975        0.8137977900
 C         -5.6488845682       -0.1725535033        0.4895747916
 C         -5.1621429264       -0.0897704179       -0.8314360727
 C         -3.8886261538       -0.4788529840       -1.1466675047
 C         -3.0286049150       -1.0021109881       -0.1555408900
 N         -1.7377086234       -1.3702781240       -0.4696630404
 C         -1.1182490251       -2.4392261700        0.1419388347
 C          0.2858921257       -2.5248694667        0.1457805419
 C          0.9242931714       -3.5601278215        0.7757656329
 C          0.1961678291       -4.5706402778        1.4329391512
 C          0.9129102123       -5.6795301331        2.1334431096
 C         -1.1965511617       -4.5059446920        1.3944508443
 C         -1.8547520818       -3.4778721871        0.7626849240
 C         -1.1240758452       -0.7822413572       -1.5940368094
 C         -0.8225460383       -1.6774311742       -2.6429233866
 C         -0.4854321187       -1.2374247989       -3.8927205085
 C         -0.4338713579        0.1422957112       -4.1340123630
 C         -0.6214639661        1.0222007433       -3.0800699589
 C         -0.9220855302        0.6156466610       -1.7858745959
 C         -0.9004646364        1.6997835041       -0.7025913206
 C          0.3787324480        2.5044733087       -0.9611817523
 C          0.3076049292        3.6997694996       -1.6916238357
 C          1.4128430355        4.4210309519       -2.0865749205
 C          2.6885720698        3.9598495453       -1.7858500318
 C          2.7980830312        2.7867151563       -1.0674838383
 C          1.6838154405        2.0720744983       -0.6373014173
 N          1.9926670836        0.9040879852        0.1326535379
 C          2.0961325559        1.0506785457        1.5220198774
 C          1.8738255077       -0.0440826629        2.3650815049
 C          1.9492001326        0.1018024663        3.7330348079
 C          2.2411604112        1.3326351876        4.3153709698
 C          2.3235504255        1.4669093922        5.8049992479
 C          2.4465549411        2.4186155901        3.4755167415
 C          2.3729883000        2.2875294238        2.1017046358
 C          2.6675814565       -0.1137047174       -0.5289912526
 C          3.6108856491       -0.9282821480        0.1067714606
 C          4.2328164710       -1.9495699724       -0.5823214663
 C          3.9574721835       -2.1939801212       -1.9221883294
 C          4.6073704385       -3.3268061301       -2.6552960608
 C          3.0498328649       -1.3555049594       -2.5625912180
 C          2.4211687907       -0.3311466628       -1.8897216980
 C         -2.1933335510        2.5377906953       -0.8649191233
 C         -2.2975362806        3.6734869233        0.1519149814
 C         -2.2125553445        3.1383741501        1.5769958714
 C         -0.9297283083        2.3294715417        1.7336840542
 C         -0.9500035528        1.1744845250        0.7368076559
 C         -3.5174983687       -1.0852088262        1.1803117826
 C         -4.7908839409       -0.6751101072        1.4749326172
 H         -7.1418422573        0.4988520181        1.8681928555
 H         -7.7475207177       -0.5606238224        0.5954992664
 H         -7.3394839517        1.1095329978        0.2160796990
 H         -5.8145721872        0.2879509848       -1.6052034324
 H         -3.5336881931       -0.4239788662       -2.1642036907
 H          0.8545359157       -1.7594997321       -0.3565816150
 H          2.0032648875       -3.6042844736        0.7708103289
 H          1.6355748136       -6.1504282388        1.4671487028
 H          0.2152381555       -6.4356218505        2.4845374373
 H          1.4637438943       -5.2933125301        2.9925749025
 H         -1.7727988587       -5.2941127513        1.8582274424
 H         -2.9306731915       -3.4777235042        0.6961544789
 H         -0.9252537379       -2.7347179439       -2.4446060529
 H         -0.2861037245       -1.9398389458       -4.6878702688
 H         -0.2135959134        0.5166605059       -5.1217340793
 H         -0.4934341388        2.0742330401       -3.2784384069
 H         -0.6528387360        4.0886029340       -1.9809255608
 H          1.2839373205        5.3392214443       -2.6413535146
 H          3.5676263469        4.5013743100       -2.0989712242
 H          3.7756057174        2.4007526551       -0.8126056824
 H          1.6222463790       -1.0044099485        1.9418383304
 H          1.7691219800       -0.7541339461        4.3680613115
 H          1.3914008234        1.1460324082        6.2686622485
 H          3.1225180832        0.8395284566        6.1994078212
 H          2.5183862683        2.4968845552        6.0921970033
 H          2.6718518619        3.3861301829        3.9009868134
 H          2.5430795234        3.1476138840        1.4731949466
 H          3.8721193979       -0.7484461449        1.1373271170
 H          4.9593330982       -2.5636596475       -0.0684880494
 H          3.9390590310       -4.1888580550       -2.6792098382
 H          5.5312072169       -3.6279769813       -2.1670052233
 H          4.8258601936       -3.0463830004       -3.6835395454
 H          2.8280445759       -1.5106547139       -3.6080878765
 H          1.7229560379        0.3012578520       -2.4115152492
 H         -2.2859799375        2.9255014849       -1.8789920069
 H         -3.0340853286        1.8589575818       -0.7115615270
 H         -1.4898990190        4.3890226575        0.0050489665
 H         -3.2456546821        4.1980583282        0.0055210727
 H         -2.2322257381        3.9675683136        2.2879975802
 H         -3.0733335239        2.4981327881        1.7804708283
 H         -0.0705751648        2.9763583341        1.5603422771
 H         -0.8524963137        1.9339818398        2.7488634036
 H         -0.1460042918        0.4730150300        0.9315124643
 H         -1.8920440759        0.6577523642        0.8955844099
 H         -2.8555570848       -1.4262149362        1.9604480520
 H         -5.1411885693       -0.7271961656        2.4963380983
