94
 energy: -127.897362649584 gnorm: 0.000039278507 xtb: 6.7.1 (edcfbbe)
C           -7.41277236919869        1.08640321356498        0.43859239432070
C           -6.01647167256296        0.60658278243008        0.17793723066131
C           -5.27987912287943        1.08484761525763       -0.89753336240363
C           -4.00001285467678        0.62842837700969       -1.15286528040038
C           -3.41213829168408       -0.32823924925404       -0.32502720715515
N           -2.10251295149343       -0.77507512142468       -0.52332676757853
C           -1.81159255735154       -2.14269423754125       -0.39649331342468
C           -0.53493576958002       -2.53846167268372       -0.00862430674536
C           -0.21982720884212       -3.87804357902464        0.11529169078476
C           -1.16610346341728       -4.86314875796456       -0.13391754800342
C           -0.83650911747951       -6.31950278548401        0.00312119877248
C           -2.44265716466143       -4.46284151515966       -0.51675926147953
C           -2.76545799091979       -3.12796309980193       -0.65266363800305
C           -1.24032842966228        0.01070504288411       -1.34707355056922
C           -1.13406968735009       -0.39983878693556       -2.67587233986671
C           -0.47142448743962        0.35471578374273       -3.62012979542484
C            0.08943439081939        1.55802090036447       -3.23433361112556
C            0.04604422006553        1.93479530344384       -1.90711026994946
C           -0.57623540478998        1.16971569642628       -0.92060738032132
C           -0.53787406518497        1.72653313445841        0.50258312071014
C            0.76368851506877        2.50670799315952        0.71878895025755
C            0.74723656649025        3.88367513589642        0.94099768216949
C            1.87220703272386        4.59918055509446        1.30810782291067
C            3.08011658869309        3.94734709779041        1.47410252086664
C            3.14690709776441        2.60247747148758        1.17434488366228
C            2.02337759822299        1.88669414640467        0.76331043142305
N            2.24986312597368        0.54080197795554        0.32679328710096
C            2.85983966975752       -0.32838918907080        1.24002001098611
C            3.70509829448928       -1.36715595183506        0.84855474047554
C            4.24839771320097       -2.22785724483084        1.78337804332901
C            3.98970107481434       -2.08629380549762        3.13966804840809
C            4.56161447554184       -3.03484013074727        4.15050794460929
C            3.17489953450747       -1.03080323393151        3.53207399499565
C            2.62375916453249       -0.16659910870428        2.60893608786365
C            2.51588054921367        0.39899701124926       -1.05501097533217
C            2.21331932417566       -0.79242701459120       -1.70985851665545
C            2.49610942143084       -0.95344801913446       -3.05193353876115
C            3.08309745910968        0.06363349247756       -3.79209875636332
C            3.41410146705198       -0.11369999233456       -5.24332045399733
C            3.36851419108713        1.25714082040218       -3.14101294859089
C            3.09202592012915        1.42750053813750       -1.79893671903851
C           -1.81235731487505        2.59414635280954        0.64578306144524
C           -2.10998925942276        3.09974371466072        2.05888266154784
C           -2.11603923738963        1.95336108917896        3.06148249819507
C           -0.78296570081224        1.22066400681115        2.98228457002409
C           -0.60742148402393        0.63275264742964        1.58568506900410
C           -4.14741607301458       -0.80595678797836        0.76272124062997
C           -5.42687170738182       -0.34857738827782        0.99999861137822
H           -8.13491636663705        0.39329690216638        0.00411932689853
H           -7.57548895671938        2.06595905624857       -0.00506696899994
H           -7.60760140796968        1.14550778473863        1.50761197678016
H           -5.71290655536858        1.82670690056880       -1.55400844782011
H           -3.44906211159938        1.01604049922995       -1.99753434025016
H            0.20323086994194       -1.78284611754464        0.20609694834696
H            0.77855190301665       -4.15872859202310        0.42150703288591
H            0.20258489617589       -6.45628528994436        0.29207276613287
H           -1.00803317555334       -6.83900949420814       -0.93935826068138
H           -1.47116782914196       -6.78364381625625        0.75783162842425
H           -3.19437970870422       -5.21238122067551       -0.72241073560235
H           -3.76020767210629       -2.84181984010208       -0.96423188525804
H           -1.62354428360982       -1.32062127168029       -2.96278425592665
H           -0.42324938953376        0.02383688111100       -4.64646653358380
H            0.57165744979192        2.19654009631638       -3.95852926722971
H            0.51297984557878        2.86537823600547       -1.61989529487764
H           -0.16887277862467        4.43401226734373        0.81354606410292
H            1.79824443813669        5.66406243439402        1.47353234746619
H            3.96278627944948        4.48139386222454        1.79305630654403
H            4.09098473844157        2.07765661079746        1.23640702301189
H            3.95776705394325       -1.49723140153786       -0.19269340759494
H            4.89963372286037       -3.02176984336441        1.44372046316959
H            5.38367266017898       -3.60592828908103        3.72517237041491
H            4.92233414435673       -2.49522521628432        5.02456593165514
H            3.79521319827996       -3.73597499023991        4.48419880879705
H            2.96859353785068       -0.87809677249725        4.58237007597348
H            2.01378741045011        0.65391011104454        2.95327052179335
H            1.75698662859326       -1.60354802934283       -1.16630084254930
H            2.25130823567128       -1.89196769261807       -3.52922253314970
H            2.97195038291103       -1.02705698033264       -5.63337316539611
H            4.49471758502145       -0.16932888693822       -5.37907257412964
H            3.05020664541404        0.73066966963362       -5.82642113788087
H            3.82466990744063        2.06817907826575       -3.69185854416017
H            3.33515485502900        2.36683420219958       -1.32522584916305
H           -1.77571416406064        3.42834289620558       -0.05851757518637
H           -2.65211647503675        1.96679483222558        0.34389711612813
H           -1.37005317621183        3.83168577585963        2.38364108489656
H           -3.08532277785769        3.59338158119989        2.04781628580297
H           -2.28074779383146        2.34105781611588        4.06937665766025
H           -2.92767744346372        1.26000335122261        2.82789859652429
H            0.02659809903378        1.91835115993810        3.21253867622699
H           -0.75110971258726        0.41133895370439        3.71579940246807
H            0.28690803579354        0.01618456600781        1.54776902982971
H           -1.46346623746180       -0.00833144495294        1.39668573899907
H           -3.70360612100274       -1.53981163657255        1.42067152947936
H           -5.97617494461337       -0.73216299205210        1.84856862920746
