94
 energy: -127.887775813497 gnorm: 0.000047855137 xtb: 6.7.1 (edcfbbe)
C           -3.59123583551956        5.20801479095805        2.28358041334429
C           -3.30349283789716        3.90179764623221        1.60600934397615
C           -4.29392242759788        3.21618948669872        0.91356695905451
C           -4.02583099147477        2.02357004508299        0.27028292037498
C           -2.74914508887887        1.46332973866047        0.31478571404145
N           -2.44180454027820        0.24332245421307       -0.32083946902308
C           -3.50527113635799       -0.63100570022206       -0.59475940400145
C           -3.67104268358373       -1.24064497854381       -1.83628112219644
C           -4.70448266464543       -2.13562714797264       -2.04601524041238
C           -5.60546472897842       -2.44883688651579       -1.03810034759194
C           -6.73943828966966       -3.40038714483205       -1.27631125489434
C           -5.43766614666255       -1.83659934772295        0.20036291260429
C           -4.40668425907944       -0.94907028098254        0.42460726288441
C           -1.36062575349962        0.28139926078324       -1.26032565634934
C           -1.47350158868867        1.24112645436405       -2.26642753411080
C           -0.54085103870929        1.35412351105238       -3.27638550091475
C            0.52427338470313        0.47474513186271       -3.29176076611280
C            0.65576848501326       -0.46551108043959       -2.28646729684721
C           -0.25221739156209       -0.58497318961406       -1.23688451714689
C            0.00312499758446       -1.59308411624483       -0.10746968702849
C            0.31342835343371       -0.73862429323704        1.12680814806672
C           -0.52874378548110       -0.76392095031407        2.23698231237767
C           -0.34017749437086        0.03653458919334        3.34844897281661
C            0.71257141506192        0.93082916020932        3.38056217499783
C            1.56597494215535        0.98024577493206        2.29795022555466
C            1.39820217482544        0.15729728757876        1.18353706813697
N            2.39649277162715        0.29680210116819        0.16421290486718
C            2.59815770854826        1.59296080659532       -0.33952487274532
C            1.50107244376279        2.37667542899389       -0.68986241832876
C            1.67000112881788        3.65283916685742       -1.18734747114667
C            2.93576218696774        4.19758137189326       -1.36177252000288
C            3.11929895822665        5.57166841258117       -1.93320182274892
C            4.02918569363761        3.41908419924370       -1.00273650664269
C            3.87056508766598        2.14586058387262       -0.49204331864527
C            3.51213916137737       -0.55794863217733        0.23283143277505
C            3.89287288824773       -1.19436226832255        1.41194026882926
C            4.98187103868404       -2.04751287478225        1.42755937318735
C            5.72425565175147       -2.29225392635935        0.28066603587716
C            6.91520055783302       -3.20208103788906        0.31156779378637
C            5.34619729870964       -1.64785542041539       -0.89335269501211
C            4.26120439811623       -0.79731354436023       -0.92282707114092
C           -1.23784764400941       -2.51533063055237       -0.00599399092278
C           -0.96435053425256       -3.92386806443229        0.54316157379406
C            0.20431724321733       -3.93575536248384        1.51682016379482
C            1.47047589960009       -3.46888705452891        0.79588700885981
C            1.16707821356372       -2.55763500834298       -0.39846331528985
C           -1.75379309126262        2.15190424729558        1.00305744268816
C           -2.02839516086300        3.35013716631894        1.63109363531784
H           -4.64953069184178        5.29976222680770        2.51672261212481
H           -3.31420622452016        6.03746752638007        1.63121247842803
H           -3.01649732761688        5.29961006537595        3.20293503853280
H           -5.29316579011952        3.62654263251365        0.86438223425045
H           -4.81340367719448        1.52463025565379       -0.27644285486060
H           -2.98855979266462       -1.01314637072883       -2.64249809801167
H           -4.81158693067930       -2.59428662682966       -3.01931860906905
H           -6.93080537717488       -4.00287495082459       -0.39048193669852
H           -6.52226229793074       -4.06081040135563       -2.11254893710856
H           -7.65093932450129       -2.84736613178219       -1.50840108520839
H           -6.12218384837123       -2.06629434383189        1.00506986356705
H           -4.28539838873831       -0.49095378508033        1.39604086680049
H           -2.33013609443033        1.90153717776877       -2.24438726846929
H           -0.65422452112885        2.10589745700328       -4.04301895088336
H            1.26062686627336        0.52187618389322       -4.08039238581178
H            1.50502060598995       -1.12460186513757       -2.33216967114471
H           -1.37662702107789       -1.42730721034590        2.24960807687665
H           -1.02558221245751       -0.03325011600214        4.18011315238771
H            0.87178227097268        1.57536416523245        4.23214753985486
H            2.40109826340062        1.66837473166659        2.29823760221957
H            0.50782637434723        1.97902020637648       -0.57554253582992
H            0.79533873722846        4.23282038628363       -1.44683593467306
H            3.22718874719578        5.51438244766798       -3.01749411245141
H            2.25904665627197        6.20000607460063       -1.71334566743531
H            4.01418804500632        6.04234110613595       -1.53139250932374
H            5.02761911835042        3.82071677102943       -1.10942837941034
H            4.74421946740551        1.58275884720763       -0.19741699506572
H            3.34190514977384       -1.01068169444126        2.32319661411582
H            5.25950435496686       -2.52833854601222        2.35526115544478
H            6.77503946653669       -3.99826173917122        1.03947373988304
H            7.80768245845923       -2.64139253941618        0.59375913957752
H            7.09056250589194       -3.64345291869335       -0.66693757306016
H            5.90782964094843       -1.82018635446799       -1.80077174173883
H            3.97768464409736       -0.30609870249270       -1.84262804889742
H           -2.02109201914304       -2.04767319712230        0.57964028068842
H           -1.63476758373805       -2.62469261330646       -1.01780855659570
H           -1.86863126311603       -4.29531011484161        1.03034548498345
H           -0.73779904191544       -4.60772676856650       -0.27768927098620
H           -0.01207884382685       -3.27641889156276        2.35727847807119
H            0.34764023777500       -4.94137360303168        1.91756197722390
H            2.11731010704238       -2.94093677447724        1.49781519419591
H            2.03231185723729       -4.32990844341955        0.42632301552367
H            2.08295538690131       -2.03120551051902       -0.64294467323770
H            0.88786744258269       -3.16519867049532       -1.26183420942121
H           -0.76228799935257        1.73660916534181        1.05673198235792
H           -1.23398710291701        3.86108058163588        2.15674521555857
