  44
        -64.76696279
 C         -5.6793845789        0.0005737272       -0.0173082942
 C         -4.9761630852        0.6854490205       -0.9960091794
 C         -3.5954534188        0.6936569885       -0.9855555154
 C         -2.8834413567        0.0029439510       -0.0000524571
 C         -1.4235051911        0.0016411901        0.0058631002
 C         -0.7146201242       -1.2379818684       -0.0212731378
 C         -1.3779666933       -2.4630994124       -0.1289709439
 C         -0.6866627178       -3.6731659215       -0.0748045999
 C          0.6802671802       -3.6741953364        0.0919104880
 C          1.3734822485       -2.4650947600        0.1437789016
 C          0.7117786750       -1.2391988601        0.0351569589
 C          1.4232204449       -0.0013291864        0.0052297018
 C          2.8833538453       -0.0027695063       -0.0005444872
 C          3.6059895418        0.6847377871        0.9794837532
 C          4.9867932952        0.6784891504        0.9732605563
 C          5.6790531103       -0.0015606791       -0.0165741294
 C          4.9760722504       -0.6828782735       -0.9979703973
 C          3.5953141932       -0.6904944067       -0.9881716836
 C          0.7145080280        1.2382415654       -0.0214485295
 C          1.3782447358        2.4631801104       -0.1290583727
 C          0.6872375206        3.6734185521       -0.0747060568
 C         -0.6795711632        3.6746247579        0.0927451979
 C         -1.3731271585        2.4656050116        0.1451309947
 C         -0.7118579662        1.2395883952        0.0356625013
 C         -3.6063954961       -0.6877143825        0.9776609080
 C         -4.9872285453       -0.6823063542        0.9706541726
 H         -6.7590093318       -0.0018344190       -0.0251286337
 H         -5.5088289203        1.2132648973       -1.7740878604
 H         -3.0501430162        1.2106863024       -1.7617970780
 H         -2.4484556562       -2.4773829649       -0.2621562692
 H         -1.2325662842       -4.6016006372       -0.1517275837
 H          1.2245232363       -4.6034193685        0.1701571233
 H          2.4441360782       -2.4802724848        0.2755137421
 H          3.0692631552        1.1984248137        1.7640702217
 H          5.5279568592        1.2050502943        1.7460771114
 H          6.7586283738       -0.0004951533       -0.0231519279
 H          5.5088086120       -1.2088282352       -1.7769576213
 H          3.0500586366       -1.2053550469       -1.7660346479
 H          2.4487365375        2.4768874906       -0.2622627725
 H          1.2332599028        4.6018385542       -0.1520666872
 H         -1.2235163469        4.6039924846        0.1712551592
 H         -2.4437429880        2.4810342286        0.2779302428
 H         -3.0698834915       -1.2034024968        1.7612107777
 H         -5.5284814788       -1.2128930716        1.7404263514
  44
        -64.76686174
 C         -5.6737392263        0.0094786767       -0.1558856683
 C         -4.9245841314        0.6968253250       -1.0983394769
 C         -3.5461687542        0.7015296320       -1.0235642938
 C         -2.8817745938        0.0040498620       -0.0094126407
 C         -1.4230190751       -0.0026316628        0.0487055823
 C         -0.7124935080       -1.2408587290        0.0386737041
 C         -1.3701714338       -2.4701881097       -0.0567991888
 C         -0.6742180656       -3.6762835093        0.0191646468
 C          0.6918644645       -3.6697285894        0.1928456524
 C          1.3802741002       -2.4571726261        0.2262332567
 C          0.7138648518       -1.2361764230        0.0972158057
 C          1.4236321926        0.0026083735        0.0437449631
 C          2.8818595111       -0.0041631596       -0.0186204408
 C          3.5441400479       -0.7095671200       -1.0288346113
 C          4.9223458487       -0.7051604488       -1.1072918242
 C          5.6738571736       -0.0097229243       -0.1727504581
 C          5.0320791161        0.6841718899        0.8411548143
 C          3.6531339660        0.6931255751        0.9163173429
 C          0.7127178300        1.2409674313        0.0334744038
 C          1.3692864232        2.4703594357       -0.0678923433
 C          0.6731171391        3.6764289200        0.0082748733
 C         -0.6923448109        3.6698627224        0.1870015815
 C         -1.3801378230        2.4572032465        0.2251141218
 C         -0.7133435686        1.2362264753        0.0969960348
 C         -3.6503692751       -0.6851666498        0.9333601372
 C         -5.0296231230       -0.6760816483        0.8621035571
 H         -6.7518596850        0.0094479089       -0.2139660634
 H         -5.4192722182        1.2291655254       -1.8978453097
 H         -2.9636876082        1.2217780276       -1.7702677211
 H         -2.4395202541       -2.4909603081       -0.1975139593
 H         -1.2161406653       -4.6078725128       -0.0466728678
 H          1.2392532116       -4.5954370593        0.2887914109
 H          2.4510296422       -2.4656433564        0.3589399145
 H          2.9601266184       -1.2355790725       -1.7702887081
 H          5.4148011176       -1.2441281120       -1.9037201561
 H          6.7517929461       -0.0092386176       -0.2337454955
 H          5.6117576617        1.2198087802        1.5789829077
 H          3.1576678351        1.2153831791        1.7220610462
 H          2.4379293843        2.4914961033       -0.2139725630
 H          1.2143761553        4.6081016859       -0.0614814606
 H         -1.2398327583        4.5955395919        0.2827244045
 H         -2.4504972063        2.4651557989        0.3609287016
 H         -3.1525797788       -1.2013446483        1.7415840525
 H         -5.6075521702       -1.2049098715        1.6061871071
  44
        -64.76670263
 C         -5.6789733113        0.0043594068        0.0205460638
 C         -4.9877761464        0.5487252351       -1.0506249123
 C         -3.6068866055        0.5543319722       -1.0584833030
 C         -2.8839251784        0.0021746620        0.0031534561
 C         -1.4232653247        0.0013702299       -0.0042570160
 C         -0.7145641630       -1.2350833717        0.0938663503
 C         -1.3836172504       -2.4620323415        0.1025683970
 C         -0.6914677123       -3.6712591540        0.1597962184
 C          0.6852601200       -3.6721953144        0.1654256276
 C          1.3796704569       -2.4640737472        0.1114708902
 C          0.7126866039       -1.2360808549        0.0963690080
 C          1.4233466101       -0.0008886887       -0.0047125248
 C          2.8840048625       -0.0023281841        0.0027832376
 C          3.5938201586       -0.5508708102        1.0751983418
 C          4.9746659625       -0.5447218098        1.0849380823
 C          5.6792648917       -0.0031388947        0.0211303575
 C          4.9889727654        0.5379143687       -1.0522407113
 C          3.6080617103        0.5445533728       -1.0607927966
 C          0.7147415990        1.2350112755       -0.1120334462
 C          1.3833277778        2.4620539087       -0.1338379101
 C          0.6908418170        3.6708935681       -0.1963100803
 C         -0.6858340995        3.6720895758       -0.1900213232
 C         -1.3796958404        2.4642447091       -0.1237141518
 C         -0.7127407320        1.2362351595       -0.1090074893
 C         -3.5945652434       -0.5496355851        1.0733180438
 C         -4.9753906291       -0.5416893854        1.0827807168
 H         -6.7586351328        0.0052998408        0.0273067220
 H         -5.5298541303        0.9685510744       -1.8856551972
 H         -3.0705941239        0.9602572408       -1.9042073946
 H         -2.4607409056       -2.4792912836        0.0468794782
 H         -1.2429875168       -4.5992755500        0.1828648705
 H          1.2352191709       -4.6009274747        0.1942651129
 H          2.4571701230       -2.4832862252        0.0639170837
 H          3.0471422132       -0.9545400566        1.9152506227
 H          5.5061173299       -0.9614764968        1.9281540064
 H          6.7589160208       -0.0025466532        0.0286607702
 H          5.5316080940        0.9552738238       -1.8881598666
 H          3.0727744535        0.9481930080       -1.9082239405
 H          2.4607626892        2.4803989792       -0.0854943470
 H          1.2423023296        4.5984210380       -0.2328658203
 H         -1.2360396153        4.6006408006       -0.2202043653
 H         -2.4566359437        2.4837890454       -0.0660793411
 H         -3.0483919316       -0.9574016253        1.9118413315
 H         -5.5076934102       -0.9615945296        1.9238150307
  44
        -64.76605528
 C         -5.6459743684       -0.0127514276       -0.3922356330
 C         -4.8133861354       -0.5250218415       -1.3753671362
 C         -3.4452110633       -0.5285084962       -1.1939338094
 C         -2.8753722760       -0.0034326942       -0.0296986821
 C         -1.4211663497        0.0052184232        0.1173676151
 C         -0.7095389304       -1.2310048214        0.0513989966
 C         -1.3790517499       -2.4578540002        0.0542832001
 C         -0.6838555797       -3.6661462111        0.0419309099
 C          0.6931556162       -3.6645059512        0.0649536799
 C          1.3858838353       -2.4545268288        0.0911067193
 C          0.7156425360       -1.2290736279        0.0600972766
 C          1.4240973381        0.0118459939        0.1085119802
 C          2.8758879940        0.0063565725       -0.0356760837
 C          3.7199727278        0.5869043905        0.9159806748
 C          5.0902511645        0.5798675829        0.7410557829
 C          5.6504804841        0.0010178932       -0.3868975895
 C          4.8266606358       -0.5849862021       -1.3359129672
 C          3.4579468673       -0.5890753555       -1.1607400448
 C          0.7124256409        1.2430550820        0.2547066974
 C          1.3726473846        2.4740904049        0.2857964984
 C          0.6762921956        3.6766184635        0.4047795133
 C         -0.6996130827        3.6697311706        0.4417647226
 C         -1.3881612888        2.4608606197        0.3484313931
 C         -0.7165332795        1.2375999910        0.2742013980
 C         -3.7262148725        0.5047691073        0.9545096413
 C         -5.0963616132        0.4943107264        0.7743429840
 H         -6.7163109065       -0.0121812204       -0.5339941249
 H         -5.2339988697       -0.9213220130       -2.2881884244
 H         -2.7950751810       -0.9149487389       -1.9656988472
 H         -2.4576302037       -2.4728514006        0.0820304560
 H         -1.2327476051       -4.5959398277        0.0308417912
 H          1.2441046413       -4.5930794808        0.0750132570
 H          2.4631388890       -2.4690022426        0.1505898042
 H          3.2911586143        1.0119779882        1.8120374840
 H          5.7277766100        1.0259053980        1.4907782957
 H          6.7213127515        0.0031881602       -0.5245745558
 H          5.2549374039       -1.0366623884       -2.2190098248
 H          2.8161672129       -1.0281615419       -1.9109901085
 H          2.4470648194        2.5031820023        0.1983124118
 H          1.2242014355        4.6059897764        0.4498695012
 H         -1.2535791474        4.5932115650        0.5201218691
 H         -2.4659477532        2.4769706196        0.3156211719
 H         -3.3041649618        0.8779753050        1.8765895139
 H         -5.7411778968        0.8818900194        1.5498286806
  44
        -64.76589691
 C         -5.6284382219        0.0304049962       -0.4852782367
 C         -4.7765875307        0.7199570363       -1.3348634718
 C         -3.4156978193        0.7158896051       -1.1077520165
 C         -2.8689667099        0.0065649662       -0.0320664551
 C         -1.4212607434       -0.0124455423        0.1502834415
 C         -0.7074583880       -1.2480223129        0.1861230481
 C         -1.3520449023       -2.4870225088        0.1324765951
 C         -0.6431016435       -3.6819976597        0.2491961851
 C          0.7246262805       -3.6573414378        0.4096072353
 C          1.4006799124       -2.4377231499        0.3920436124
 C          0.7186667500       -1.2291348787        0.2365665619
 C          1.4228256985        0.0114848973        0.1378584644
 C          2.8686510007       -0.0079309309       -0.0599409007
 C          3.4030514837       -0.7173946253       -1.1415821038
 C          4.7610325976       -0.7189550810       -1.3857701200
 C          5.6221511939       -0.0274270619       -0.5472354839
 C          5.1103184038        0.6596075658        0.5419418204
 C          3.7498312712        0.6746008956        0.7833739339
 C          0.7094932465        1.2472528539        0.1753616525
 C          1.3539910058        2.4858809122        0.1123269361
 C          0.6463571209        3.6814626259        0.2301289829
 C         -0.7200337471        3.6576629554        0.4016277318
 C         -1.3964132561        2.4381234278        0.3946726247
 C         -0.7161609317        1.2286825170        0.2379857710
 C         -3.7407993969       -0.6750763840        0.8217367375
 C         -5.1041080914       -0.6580431503        0.5970561067
 H         -6.6933031930        0.0346919861       -0.6632893723
 H         -5.1768270366        1.2608866348       -2.1801648913
 H         -2.7512196415        1.2386305757       -1.7806483011
 H         -2.4206328231       -2.5253707149       -0.0082882392
 H         -1.1759437177       -4.6207371977        0.2198111677
 H          1.2818046836       -4.5741947889        0.5306343593
 H          2.4739020185       -2.4288391442        0.5054471836
 H          2.7310617782       -1.2414787007       -1.8059325669
 H          5.1515830582       -1.2588495621       -2.2362308716
 H          6.6846314768       -0.0291132030       -0.7390621186
 H          5.7778302717        1.1855393205        1.2092437098
 H          3.3599837059        1.1886055090        1.6501367401
 H          2.4215347072        2.5233264771       -0.0364520237
 H          1.1790686516        4.6199667390        0.1922410620
 H         -1.2761998216        4.5751181795        0.5227585329
 H         -2.4685829726        2.4302711042        0.5174809934
 H         -3.3414702189       -1.1873293935        1.6851737199
 H         -5.7644252079       -1.1799290041        1.2746400533
  44
        -64.76580694
 C         -5.6333494001       -0.0170493689       -0.4665115672
 C         -4.7780681927       -0.5273794940       -1.4309052180
 C         -3.4144343698       -0.5301536366       -1.2179048359
 C         -2.8719380137       -0.0045180211       -0.0409976416
 C         -1.4206049319        0.0068695731        0.1333410508
 C         -0.7083957393       -1.2295714531        0.0826926202
 C         -1.3781782944       -2.4559170936        0.1044870494
 C         -0.6823014219       -3.6638629936        0.1068613402
 C          0.6950110844       -3.6612388139        0.1172951143
 C          1.3878631388       -2.4510059054        0.1209270318
 C          0.7163196952       -1.2265031913        0.0851995260
 C          1.4233999744        0.0155694379        0.1231297569
 C          2.8726041786        0.0092721902       -0.0473423185
 C          3.7388918397        0.5781680741        0.8906510755
 C          5.1051708479        0.5682498069        0.6853552395
 C          5.6386566003       -0.0016236015       -0.4597230749
 C          4.7923690647       -0.5773535025       -1.3952022640
 C          3.4280255941       -0.5792590490       -1.1894372436
 C          0.7117118657        1.2450375419        0.2827145968
 C          1.3711295875        2.4758012204        0.3312269643
 C          0.6735616470        3.6765250758        0.4623148888
 C         -0.7024959704        3.6690957098        0.4901688988
 C         -1.3901464392        2.4611169830        0.3792233966
 C         -0.7175842706        1.2389610590        0.2981533387
 C         -3.7453337200        0.4999555575        0.9249323193
 C         -5.1110974560        0.4875889013        0.7136004220
 H         -6.7001491381       -0.0166343789       -0.6329115826
 H         -5.1772273512       -0.9227434975       -2.3537221298
 H         -2.7465449058       -0.9168085527       -1.9742577788
 H         -2.4567573447       -2.4694036228        0.1366254687
 H         -1.2304474983       -4.5941225937        0.1146492715
 H          1.2463539400       -4.5894725649        0.1345655064
 H          2.4658435302       -2.4640859984        0.1675563597
 H          3.3320676155        0.9956314310        1.8004082939
 H          5.7603637953        1.0055692162        1.4248578204
 H          6.7061445729       -0.0004424563       -0.6213372653
 H          5.1996354106       -1.0224559649       -2.2914576276
 H          2.7682505539       -1.0109669580       -1.9283002020
 H          2.4459170124        2.5064750531        0.2493573813
 H          1.2208125269        4.6053641829        0.5229728777
 H         -1.2571720041        4.5915590303        0.5754563446
 H         -2.4677054818        2.4769803152        0.3396517458
 H         -3.3448398056        0.8718894441        1.8570996163
 H         -5.7739221944        0.8729361719        1.4748478217
  44
        -64.76558125
 C         -5.6083953924        0.0032842245        0.5921228802
 C         -5.1146286493        0.6731525860       -0.5158560665
 C         -3.7590037098        0.6782162102       -0.7840932243
 C         -2.8649306609        0.0037450467        0.0517759249
 C         -1.4216485422        0.0165907043       -0.1654894104
 C         -0.7243641502       -1.2279645063       -0.2640378683
 C         -1.4149694812       -2.4314891279       -0.4203645176
 C         -0.7465882878       -3.6551894700       -0.4483295824
 C          0.6219180218       -3.6890657154       -0.2968816960
 C          1.3386928234       -2.4993877629       -0.1725198475
 C          0.7015496392       -1.2562047157       -0.2130323228
 C          1.4211814146       -0.0245073445       -0.1597879683
 C          2.8641937573       -0.0085944317        0.0577908409
 C          3.3801931940        0.6934131734        1.1534519883
 C          4.7344543079        0.6999905160        1.4166166323
 C          5.6105405423        0.0204653292        0.5837739010
 C          5.1170838140       -0.6607341391       -0.5173970719
 C          3.7601121945       -0.6802880618       -0.7782824227
 C          0.7240623203        1.2204305348       -0.2599403057
 C          1.4146600383        2.4244369476       -0.4126724619
 C          0.7463310503        3.6480181868       -0.4415341943
 C         -0.6228411541        3.6815438761       -0.2960067895
 C         -1.3395480196        2.4915671101       -0.1762180766
 C         -0.7019405137        1.2484921014       -0.2147662584
 C         -3.3817407262       -0.6906298898        1.1516536811
 C         -4.7346136431       -0.6825367771        1.4221942296
 H         -6.6667257099        0.0107934726        0.8054978897
 H         -5.7925590387        1.1939070411       -1.1766871424
 H         -3.3844242519        1.1761150060       -1.6668045814
 H         -2.4888921175       -2.4150275258       -0.5266303203
 H         -1.3100801223       -4.5677943525       -0.5722370979
 H          1.1494819751       -4.6311240852       -0.2800100822
 H          2.4073222257       -2.5459488085       -0.0351158391
 H          2.6963959708        1.2096093957        1.8119037850
 H          5.1101949097        1.2341884815        2.2772730393
 H          6.6703612046        0.0268775381        0.7896480064
 H          5.7966018327       -1.1776697474       -1.1795682524
 H          3.3860955621       -1.1855263378       -1.6570462594
 H          2.4888687733        2.4091057904       -0.5155726354
 H          1.3102127952        4.5608629243       -0.5617004086
 H         -1.1507529086        4.6233793405       -0.2799636730
 H         -2.4087143788        2.5377185698       -0.0432410343
 H         -2.6994393836       -1.2110214941        1.8083508330
 H         -5.1110897050       -1.2097727138        2.2868183184
