  78
       -140.02012995
 O         -3.3124874212        3.4321471190       -1.4951106962
 S         -2.7425893069        3.8892343854       -0.2505285533
 O         -2.7734146778        5.3034768901        0.0103598054
 C         -3.5594066424        3.0053307144        1.0888628184
 C         -4.8443609279        2.5361055923        0.8953811549
 C         -5.4665494549        1.8268415641        1.9113552178
 C         -4.7954247738        1.5975854727        3.1011274570
 C         -3.5118640682        2.0876573834        3.2886702713
 C         -2.8866642394        2.8000930941        2.2775937435
 C         -1.0298968970        3.3287166743       -0.1740897795
 C          0.0009890160        4.2539095672       -0.1688741741
 C          1.3127514480        3.7918087088       -0.1249657741
 C          1.5759530899        2.4401813712       -0.0694890211
 C          0.5245613975        1.5077404771       -0.0595540035
 C          0.7728275718        0.1006510952        0.0314856817
 N         -0.2316991952       -0.7517843607        0.0989928642
 C         -0.0361164364       -2.0560026478        0.1779993666
 C         -1.1688383058       -2.9275981771        0.2690436549
 C         -1.0523135839       -4.3265037228        0.2941914958
 C         -2.1770041212       -5.1209621801        0.3655020526
 C         -3.4465665909       -4.5515694582        0.4079966052
 C         -3.5512740832       -3.1709562065        0.3944296575
 S         -5.1594682451       -2.3521418753        0.4082397779
 O         -5.1801788035       -1.4048120111        1.4937010069
 O         -6.1921822611       -3.3525209220        0.3607883623
 C         -5.1123712365       -1.4469990377       -1.1435813845
 C         -4.6083050355       -0.1616993289       -1.1469967999
 C         -4.4950139857        0.5225497165       -2.3468862658
 C         -4.8883874570       -0.0991365571       -3.5226396644
 C         -5.3977752631       -1.3891156329       -3.5061377468
 C         -5.5066579562       -2.0758215240       -2.3073861767
 C         -2.4514109548       -2.3589548401        0.3278997911
 N          1.2350300701       -2.5613624587        0.1714426521
 C          2.2192085748       -1.6819567051        0.1229613386
 C          3.5988004411       -2.1738972927        0.1292313464
 C          3.8960497863       -3.5291249214       -0.0073365931
 C          5.2130743709       -3.9513347839       -0.0315880064
 C          6.2453591375       -3.0296293199        0.0772742549
 C          5.9393882402       -1.6886971750        0.2240507967
 S          7.2745312699       -0.4799781313        0.3946022334
 O          8.3618267740       -0.9010495190       -0.4469495562
 O          7.5354555857       -0.2997497899        1.7975447783
 C          6.5382221847        1.0219332103       -0.2637802934
 C          6.4277196378        1.1625618131       -1.6332980821
 C          5.7826810125        2.2766478675       -2.1447277375
 C          5.2534827188        3.2251401150       -1.2825300768
 C          5.3778471773        3.0755116142        0.0902806876
 C          6.0248197880        1.9641252305        0.6064381275
 C          4.6369580719       -1.2511945878        0.2573093283
 N          2.0533531494       -0.3714218631        0.0600993404
 C         -0.7975672498        1.9784201805       -0.1271016186
 H         -5.3316122239        2.7233456213       -0.0489280291
 H         -6.4614814635        1.4369326500        1.7682480602
 H         -5.2736366829        1.0270917710        3.8816155818
 H         -2.9937012184        1.9110622356        4.2195573603
 H         -1.8877543592        3.1901849373        2.4042188446
 H         -0.2385377095        5.3042894576       -0.1979827277
 H          2.1274804487        4.5000147243       -0.1290393340
 H          2.5903265198        2.0728978899       -0.0304090130
 H         -0.0654040505       -4.7607450559        0.2551895390
 H         -2.0766354394       -6.1957320430        0.3850460146
 H         -4.3420760708       -5.1488699971        0.4578705303
 H         -4.3375543999        0.2967469061       -0.2086249552
 H         -4.1052375787        1.5302950729       -2.3561199237
 H         -4.8018688534        0.4297389630       -4.4598806942
 H         -5.7085499223       -1.8615972826       -4.4258467373
 H         -5.9041529677       -3.0772799467       -2.2567753539
 H         -2.5524723534       -1.2856409754        0.3292180621
 H          3.0844004870       -4.2336498513       -0.1006985383
 H          5.4400557499       -5.0008725046       -0.1410973609
 H          7.2808959444       -3.3287216922        0.0440352458
 H          6.8544145589        0.4069508880       -2.2739989591
 H          5.6888329117        2.4039027045       -3.2122647844
 H          4.7438198350        4.0877060702       -1.6851795554
 H          4.9709290985        3.8199430149        0.7579269549
 H          6.1448994210        1.8119051206        1.6677791951
 H          4.3976816930       -0.2064567615        0.3765289558
 H         -1.6152202104        1.2744358309       -0.1410612030
