  128
       -204.67694666
 N         -6.8811223808        6.9886058091        0.5522602966
 C         -6.4212320486        5.9452812959        0.4070555572
 C         -5.8646462055        4.6631410344        0.2492645060
 C         -6.1455895056        3.6781871901        1.1842514448
 C         -5.5949954213        2.4108807666        1.0553307893
 C         -4.7579797020        2.1105333730       -0.0047826499
 N         -4.2154191036        0.8208770522       -0.1013886790
 C         -4.9549811606       -0.3712846581       -0.1251116692
 C         -6.3623102430       -0.4431035115       -0.2641826577
 C         -7.0706198650        0.5923280321       -0.9210526106
 C         -8.4201652978        0.5619886170       -1.0781082806
 C         -9.1984221910       -0.5130319391       -0.5640282990
 C        -10.5921019109       -0.5363626822       -0.6863982645
 C        -11.3294879932       -1.5975691561       -0.2135434931
 C        -10.6980778311       -2.6908220183        0.4096058763
 C        -11.4304318151       -3.7919432075        0.9000269362
 C        -10.7896942177       -4.8557448614        1.5089417274
 C         -9.4183891346       -4.8590616119        1.6544238235
 C         -8.6405713304       -3.7777087022        1.1808714200
 C         -7.2435306089       -3.7425400219        1.3166362191
 C         -6.5062002387       -2.6765192524        0.8497137119
 C         -7.1121362613       -1.5897825176        0.2051831173
 C         -8.5242856794       -1.5941755602        0.0613575754
 C         -9.2852483592       -2.6850006255        0.5484872129
 N         -4.1402300453       -1.4261695637       -0.0861663972
 C         -2.8926699541       -0.9528322949       -0.0669603180
 C         -1.6820986196       -1.6988783114       -0.0861263829
 C         -1.6910937811       -3.0965346969       -0.1408643421
 C         -0.5145658941       -3.8015960683       -0.1726596986
 C          0.7079967887       -3.1188498130       -0.1637246858
 C          1.9809075990       -3.8488763326       -0.1863533617
 C          2.1528204820       -5.0075326749        0.5696745327
 C          3.3638755748       -5.6681262421        0.5907422345
 C          4.4338451608       -5.1929928547       -0.1638771217
 N          5.6709099420       -5.8456051184       -0.1332028141
 C          5.8811567668       -7.2009426421       -0.2969047365
 C          4.9708778397       -8.2096439203       -0.5781509851
 C          5.4566264398       -9.4954356214       -0.7208413974
 C          6.8150252347       -9.7780154868       -0.5981233032
 C          7.7287456416       -8.7744143647       -0.3442920975
 C          7.2645867823       -7.4745050471       -0.1960792853
 C          7.9134443370       -6.2161665852        0.0472250862
 C          9.2362989239       -5.8478950032        0.2518186216
 C          9.5237278233       -4.5187160038        0.4910671345
 C          8.5097717311       -3.5653156217        0.5445285201
 C          7.1861477598       -3.9077089720        0.3440632875
 C          6.8938494615       -5.2374653133        0.0760960373
 C          4.2633875904       -4.0519804547       -0.9445580975
 C          3.0552103197       -3.3870350202       -0.9462171113
 C          0.7131310318       -1.7325108751       -0.1139290338
 C         -0.4643050978       -0.9825020837       -0.0660117617
 C         -0.4697423861        0.4695906596        0.0404486324
 C          0.7177130853        1.1933610579        0.1138668606
 C          0.7549300613        2.5732272092        0.2631304612
 C          2.0375705812        3.2758697054        0.3033362437
 C          2.1904177865        4.5221285691       -0.3064135270
 C          3.4092897916        5.1671567901       -0.3096356567
 C          4.5111714547        4.5876792893        0.3164035982
 N          5.7548887797        5.2265035006        0.3048758687
 C          6.9576066359        4.6365955598       -0.0343574574
 C          7.2161427922        3.3490970664       -0.4828576388
 C          8.5244292820        3.0204411793       -0.7830928257
 C          9.5555447588        3.9476660825       -0.6530169355
 C          9.3004997340        5.2386140315       -0.2342209629
 C          7.9938388159        5.5920638467        0.0737733174
 C          7.3772498237        6.8157932760        0.5055287744
 C          7.8698651882        8.0795947060        0.8003267201
 C          6.9854261268        9.0516845852        1.2242624508
 C          5.6291171192        8.7708228294        1.3712547973
 C          5.1154536321        7.5203848677        1.0844038376
 C          5.9950229202        6.5470921751        0.6324282089
 C          4.3627679582        3.3562044372        0.9516708595
 C          3.1457055644        2.7098923692        0.9368907363
 C         -0.4588290377        3.2639603538        0.3832187000
 C         -1.6481146393        2.5913367489        0.3068810919
 C         -1.6960061034        1.1996756558        0.0940429139
 C         -2.8933141059        0.4618778634       -0.0422780081
 C         -4.4708477521        3.0842437171       -1.0054426570
 C         -3.6800341607        2.7993581495       -2.1358106065
 C         -3.4212078217        3.7671317584       -3.0708851759
 C         -3.9390425725        5.0568352098       -2.9160292602
 C         -4.7313987067        5.3583141727       -1.8387287821
 C         -5.0236075961        4.3839342178       -0.8668341449
 H         -6.7863510372        3.9048592403        2.0230207522
 H         -5.8096717489        1.6505342458        1.7915164129
 H         -6.5162973368        1.4018286134       -1.3697770464
 H         -8.9231717598        1.3528860012       -1.6149143836
 H        -11.0862810859        0.2985207439       -1.1626041602
 H        -12.4048043966       -1.6042152762       -0.3167378828
 H        -12.5051293182       -3.7917527086        0.7923783117
 H        -11.3705031008       -5.6901805356        1.8750716516
 H         -8.9188618104       -5.6886081345        2.1327025880
 H         -6.7447456762       -4.5700701813        1.8003787914
 H         -5.4351625033       -2.6754441755        0.9666406234
 H         -2.6477895864       -3.5948297850       -0.1632932765
 H         -0.5248808653       -4.8796274485       -0.2302150119
 H          1.3381620031       -5.3711748855        1.1781157520
 H          3.4970307895       -6.5416154132        1.2111936491
 H          3.9185746745       -7.9988715633       -0.6945953991
 H          4.7675211242      -10.2986711651       -0.9361116785
 H          7.1546366905      -10.7964268677       -0.7138162253
 H          8.7835970664       -8.9901549462       -0.2665551880
 H         10.0198844424       -6.5899649437        0.2286920712
 H         10.5462718229       -4.2107745753        0.6506736986
 H          8.7628736981       -2.5359416303        0.7517417978
 H          6.4062005129       -3.1640791917        0.4079781628
 H          5.0793595354       -3.7018476677       -1.5589639921
 H          2.9312501241       -2.5133937381       -1.5691974934
 H          1.6724214502       -1.2413327953       -0.0847262597
 H          1.6607192412        0.6785365421        0.0301681716
 H          1.3512257359        4.9704644044       -0.8172878974
 H          3.5234659457        6.1120901333       -0.8193463464
 H          6.4220209767        2.6283672637       -0.6068874403
 H          8.7514378880        2.0230869728       -1.1300825425
 H         10.5653201269        3.6512600953       -0.8946770869
 H         10.0965449180        5.9629389093       -0.1512143564
 H          8.9238414139        8.2916869049        0.7030637558
 H          7.3471572225       10.0425177053        1.4552222977
 H          4.9639839725        9.5463659918        1.7212186761
 H          4.0659326506        7.3082447254        1.2212804183
 H          5.2040379615        2.9216696943        1.4706268350
 H          3.0420924672        1.7668768240        1.4529232853
 H         -0.4554440724        4.3282499101        0.5641828234
 H         -2.5661110969        3.1379004720        0.4424618178
 H         -3.2812747824        1.8041724607       -2.2666783263
 H         -2.8142418338        3.5339613820       -3.9329087419
 H         -3.7192872161        5.8128485974       -3.6546678146
 H         -5.1460526651        6.3485967026       -1.7184601547
