128
 energy: -204.679608524316 gnorm: 0.000103491911 xtb: 6.7.1 (edcfbbe)
N           -6.87356465085451        6.99375408807690        0.42106496629577
C           -6.41101337180144        5.94917107397572        0.29875887566004
C           -5.84915490066591        4.66530741636284        0.16599530086939
C           -6.10885257406597        3.70497979162022        1.13011644909846
C           -5.55331328423524        2.43606932377030        1.02434411747412
C           -4.73341459366058        2.11337869866020       -0.04031761230224
N           -4.18974469176297        0.82190605080806       -0.11602819989258
C           -4.92897905004874       -0.36834005426838       -0.12508927986063
C           -6.33746870431002       -0.43915868011058       -0.26612908469654
C           -7.04213773583108        0.58217825182426       -0.94717815600745
C           -8.39054200705354        0.54878656329654       -1.11075370380854
C           -9.17369424011463       -0.51705981855522       -0.57669322300423
C          -10.56357474641977       -0.54315860314158       -0.70701269350176
C          -11.30563845928302       -1.59518436810725       -0.21068995873562
C          -10.67865726833835       -2.66901435723353        0.44308451566013
C          -11.41527947645927       -3.75898189356746        0.96068029698401
C          -10.77778846916328       -4.80564380744849        1.60140012051188
C           -9.40720127637664       -4.80612200727711        1.75331363965748
C           -8.62452784710808       -3.73658812213269        1.25283047369809
C           -7.23067371859249       -3.70056850557149        1.39198212918086
C           -6.48873375860879       -2.64461717164652        0.89966329611741
C           -7.09103356691070       -1.57604084021537        0.22847760365977
C           -8.50286863422417       -1.58279355854030        0.07816924538447
C           -9.26632859477886       -2.66041877760406        0.58913210859415
N           -4.11707390441366       -1.42230348114033       -0.06777549679990
C           -2.86717161003377       -0.94877013869317       -0.04660199959749
C           -1.65666720016503       -1.69542496369448       -0.04797786637133
C           -1.66702456892861       -3.09359034698735       -0.08343525725995
C           -0.49129482462717       -3.79943436537459       -0.10513103621328
C            0.73249001339966       -3.11793461934172       -0.10315881752323
C            2.00142925365096       -3.85561846326848       -0.12731676974512
C            2.16685505857906       -5.01630024355691        0.62705629147634
C            3.36756303746029       -5.69589116430049        0.63001967226102
C            4.43361583004010       -5.23765185836101       -0.14033932218254
N            5.65594772162513       -5.91885852184554       -0.13679210745221
C            5.82854900540489       -7.27705661065363       -0.31991975917834
C            4.88811009905095       -8.25823159406703       -0.59935513342824
C            5.33806013139717       -9.55401292389870       -0.76650637108937
C            6.69050760147734       -9.87312929494312       -0.66894081446524
C            7.63369559983423       -8.89692050895899       -0.41664156876585
C            7.20581502648962       -7.58734862687887       -0.24475784306129
C            7.89063890595376       -6.34918326818527        0.00261719286795
C            9.22584554998593       -6.01748978525635        0.18947047643140
C            9.55157803426824       -4.69889842073872        0.43738881691877
C            8.56373373423804       -3.72002118753349        0.51606634862025
C            7.22851742811270       -4.02579371436670        0.33390817031882
C            6.89730798086608       -5.34482490530953        0.05861984814089
C            4.27226564970248       -4.08949001782833       -0.91210495130084
C            3.07408730286382       -3.40634657588072       -0.89678583957118
C            0.73915022564519       -1.73172955911720       -0.06851223224200
C           -0.43840189004450       -0.97978980537912       -0.03331535034074
C           -0.44388123202095        0.47367068736659        0.05003083214270
C            0.74392933827647        1.19999496243320        0.12041627900754
C            0.77784178432986        2.58120888364822        0.24478962187104
C            2.05770709162232        3.29178210786186        0.28605871571751
C            2.20992426799655        4.52285442645691       -0.35286563341844
C            3.42096971561888        5.18264728902121       -0.34481999077164
C            4.51421671634686        4.63352516512579        0.32186913441824
N            5.74660665527344        5.29478554405910        0.32943056730937
C            6.96876379442731        4.72509777820342        0.02745696262576
C            7.26483073024355        3.43536386503432       -0.39005472663625
C            8.58607491319564        3.13029261724468       -0.65640511839311
C            9.59385471856380        4.08242000742810       -0.52274456170811
C            9.30204964816698        5.37466087398033       -0.13355940978841
C            7.98161441532162        5.70485591848882        0.14004157360743
C            7.32995363408070        6.92235414288195        0.53579733232076
C            7.78882522212663        8.20197252215438        0.81755370813045
C            6.87489744935859        9.16199041287894        1.20428783808377
C            5.52195793075803        8.85425534496841        1.32719393092099
C            5.04158383641707        7.58802738429512        1.05232511980780
C            5.95141508964296        6.62600139549703        0.63770182254524
C            4.36746168767168        3.41411445833230        0.97972537619761
C            3.15820600545215        2.75235701064030        0.95349361972809
C           -0.43659866346685        3.27361526469731        0.34044178883984
C           -1.62516905799584        2.59868549991300        0.26680772749585
C           -1.66932214232889        1.20428493513843        0.08237470602665
C           -2.86757879799992        0.46283157315228       -0.04469341715185
C           -4.46469149510274        3.06335162119650       -1.06829101940513
C           -3.68569542704022        2.75404460398460       -2.20077296909599
C           -3.44897213462396        3.69760164202416       -3.16517913945683
C           -3.97781595109745        4.98682342622978       -3.03926062849556
C           -4.75555724182856        5.31215098353234       -1.95899118221547
C           -5.02434032945897        4.36245569548506       -0.95579522503145
H           -6.73742490952741        3.94923337178173        1.97315847052577
H           -5.75439781002401        1.69324091100135        1.78195846338137
H           -6.48550321981444        1.38255928145269       -1.40947219105239
H           -8.89120519607330        1.32701490394629       -1.66774397280250
H          -11.05653568753460        0.27830974691484       -1.20714954972226
H          -12.38015382425367       -1.60354440052332       -0.32158144354180
H          -12.48925832819508       -3.76089310535376        0.84698591024656
H          -11.36082550335698       -5.62917413785547        1.98820928008927
H           -8.91003986833201       -5.62174622625733        2.25711263058942
H           -6.73315371336574       -4.51543479692882        1.89782978682519
H           -5.41813917845267       -2.64291303001884        1.02079361892632
H           -2.62413864601988       -3.59129662027817       -0.10139391023127
H           -0.50262700483688       -4.87805488908718       -0.15038761371908
H            1.35499421080065       -5.36930177168272        1.24554481688516
H            3.49510009375488       -6.57390552525874        1.24537744170544
H            3.83992258032945       -8.01869367380741       -0.69639186129451
H            4.62510643085323      -10.33627974062189       -0.98159395164689
H            7.00168588451660      -10.89838971823576       -0.80310598792366
H            8.68368812446185       -9.14083278366995       -0.35792888634293
H            9.98933666649189       -6.77940964994765        0.14570636714360
H           10.58430571615974       -4.41917750638157        0.58310019568462
H            8.84706580801256       -2.69960296906627        0.72846924860781
H            6.46928772888535       -3.26273232358144        0.41672379735180
H            5.08616571566381       -3.74880660934003       -1.53459276940869
H            2.95619885711504       -2.52845410411427       -1.51502372372255
H            1.69861632701001       -1.24052364708415       -0.04411169946246
H            1.68803357224180        0.68419801406603        0.05614030325390
H            1.37701132376705        4.94843723562664       -0.89277666437517
H            3.53536686368549        6.11689987176497       -0.87382708886418
H            6.48935649960338        2.69501414210936       -0.51659601088026
H            8.84211214983749        2.13200867660752       -0.97962632508689
H           10.61476827850651        3.80395267677556       -0.73757996408834
H           10.08020443150743        6.11782817556662       -0.04706181707757
H            8.83996289774301        8.43509001666453        0.73916759208319
H            7.21023490815517       10.16424625663467        1.42552065594910
H            4.83289036450082        9.62131826777802        1.64845676650865
H            3.99401038780159        7.35550534955798        1.17022942104618
H            5.20254397561227        3.00125568436874        1.52570599917152
H            3.05423946678620        1.81945993448548        1.48774662662318
H           -0.43488363633536        4.34140349422759        0.49965030316760
H           -2.54496377572844        3.14761528906728        0.38042170890897
H           -3.27881374050705        1.75933155971251       -2.30799107015786
H           -2.85168916497113        3.44674859155835       -4.02893725923097
H           -3.77663555546844        5.72311982580179       -3.80275499344057
H           -5.17711986448527        6.30188127749283       -1.86007895180163
