128
 energy: -204.678738457915 gnorm: 0.000092733377 xtb: 6.7.1 (edcfbbe)
N           -7.00907976714864        6.44388625478741        2.02741074054672
C           -6.51609591705380        5.44580862979353        1.74338580519231
C           -5.89763428360431        4.22412232986177        1.41629776728137
C           -4.93496937733468        3.70323270433283        2.26562814657693
C           -4.32982252628140        2.48729301772402        1.97497917293965
C           -4.67099937942957        1.78352138453881        0.83298825721518
N           -4.07281245143770        0.53616722245612        0.60052754650220
C           -4.72905521654679       -0.69841968818389        0.48362117527211
C           -6.12913461270518       -0.88634405130194        0.60888617989175
C           -6.90517268761013       -0.00655750683938        1.39921565231153
C           -8.25527605684089       -0.11789532382451        1.50048048514673
C           -8.96753737882663       -1.12740982954466        0.78741516595080
C          -10.35866800227015       -1.22381135874527        0.84673806889926
C          -11.03236573426937       -2.22584215994027        0.17790625483515
C          -10.33134825745328       -3.17660235930779       -0.58153516859289
C          -10.99690732856243       -4.21456997581247       -1.27418465317595
C          -10.28747568653099       -5.14131849255615       -2.01579429470371
C           -8.91290914843015       -5.07018358847535       -2.09945786370974
C           -8.19986254592058       -4.04804545887533       -1.42485888327862
C           -6.80464878982362       -3.94228402383789       -1.48948217451549
C           -6.13145470353467       -2.93248592512869       -0.82881616267544
C           -6.80774087137252       -1.98357848116599       -0.05671561376172
C           -8.22281816181807       -2.06674962331164        0.02749826731151
C           -8.91570003710408       -3.09489628881195       -0.65687988570543
N           -3.84716730140442       -1.67472830291393        0.28171963951592
C           -2.63344909724583       -1.11424859768058        0.29172205749752
C           -1.37401081414307       -1.76807333585460        0.19658680807491
C           -1.28379152014271       -3.16103649821218        0.11142340286894
C           -0.06005938318702       -3.77931214636333        0.07969070024779
C            1.11180729421857       -3.01388452114645        0.13686142581173
C            2.42807197947784       -3.66362172592366        0.12506843498234
C            2.65067412547240       -4.83679105772535        0.84477782081623
C            3.89062264618640       -5.44158873579080        0.85062526048456
C            4.94080020376700       -4.89343595956432        0.11812162354059
N            6.20016014276497       -5.50362083805693        0.11954639779292
C            6.45232808703359       -6.84170112915059       -0.11301770995127
C            5.57344121118052       -7.86217459267641       -0.44683869592996
C            6.09865712392145       -9.12296670686284       -0.65655168017603
C            7.46539501093495       -9.36934135531249       -0.54793544351829
C            8.34769343806982       -8.35264670504094       -0.24114738427975
C            7.84365190342995       -7.07702553424715       -0.02576832883229
C            8.45320141354785       -5.81318756997111        0.28143380560025
C            9.76436494237571       -5.41473910149199        0.50452641102668
C           10.01079609913599       -4.09074110923737        0.80874524180293
C            8.96787618682268       -3.17268358558553        0.90738453062695
C            7.65512041838501       -3.54537355388781        0.69006443821710
C            7.40372634319341       -4.86910278254207        0.35868185892379
C            4.72501386315789       -3.72916158228940       -0.61512103277438
C            3.48667670178022       -3.12156563287768       -0.60278010893226
C            1.01903142663966       -1.63213808582550        0.20947832669215
C           -0.21028784673871       -0.96746049759258        0.23054722161692
C           -0.32307296713475        0.48378449383047        0.25637738029758
C            0.80281794395155        1.29826817001572        0.14252308948450
C            0.73154301941446        2.68318522686846        0.11203835939548
C            1.94709083556274        3.49147776798563       -0.00630255465950
C            2.07639451524242        4.69230278097903        0.69234646640224
C            3.22386531738069        5.45103302177094        0.59513948239251
C            4.27217586569309        5.03518234866818       -0.22292335671209
N            5.43630968123315        5.80295616000754       -0.32937553523611
C            5.49126875767905        7.16103203919728       -0.57818687562920
C            4.46139317239659        8.05758255110757       -0.82474534944171
C            4.79833844280791        9.37390638176793       -1.07653256317570
C            6.12606272074636        9.79469548413877       -1.09413242601288
C            7.15644651755438        8.90190906563593       -0.87573825383981
C            6.84270438593565        7.57386424013714       -0.62022816494917
C            7.63606730026600        6.40102750405081       -0.37810783159017
C            9.00270310334563        6.17654650034877       -0.28155583468788
C            9.44537584367058        4.89738935384702       -0.00898324100523
C            8.54347804549998        3.85353479425361        0.18328084864302
C            7.17898558123052        4.05255248669322        0.09271730885230
C            6.72893206248914        5.33024473495336       -0.20772164901391
C            4.14803198068986        3.84417439924952       -0.93518116126757
C            3.00456214213988        3.08249853019586       -0.81978366924967
C           -0.53038809317815        3.28907798906149        0.17603681305677
C           -1.66057931765120        2.52515036593684        0.28980248436267
C           -1.59597672972093        1.12109816821486        0.35767001143117
C           -2.73204169835347        0.28307497352257        0.46018917786090
C           -5.62536045039428        2.30519127380684       -0.08604391797149
C           -5.95442876433738        1.65738496163554       -1.29270429274445
C           -6.89312172983950        2.18569313549322       -2.13728142561274
C           -7.54092346112086        3.38437007979347       -1.81658297382495
C           -7.22404565379768        4.05215305630463       -0.66388391961664
C           -6.25869149922494        3.53740106844012        0.22159977437377
H           -4.66828676766721        4.23648214152846        3.16586589318166
H           -3.59512574389414        2.07420770036097        2.65096937776821
H           -6.40289513430435        0.74390102828857        1.98942409321270
H           -8.81181479038760        0.55273470023058        2.13840422351847
H          -10.90800341125773       -0.49807684178690        1.42937172156710
H          -12.10925768303103       -2.28949223423557        0.23465525368954
H          -12.07363259717576       -4.27209481755557       -1.21338419539972
H          -10.81679796630094       -5.92702524137903       -2.53567325965666
H           -8.35909005303449       -5.79205846654059       -2.68117421083867
H           -6.25005181981068       -4.66452092530842       -2.07108729096875
H           -5.05754707531817       -2.87514563247856       -0.89614720628796
H           -2.20221573860441       -3.72644729971240        0.08141832815487
H            0.00695688769217       -4.85373813964370       -0.00237304915478
H            1.85027341176234       -5.25998399528086        1.43342667137407
H            4.06006925795039       -6.33141398566483        1.43828617601313
H            4.51492496903534       -7.67813286055444       -0.55252691317133
H            5.43458563501748       -9.93479802025975       -0.91434778842878
H            7.83626589128307      -10.36933733222336       -0.71665487047715
H            9.40880915060945       -8.53948379171358       -0.17366631987479
H           10.57048676625575       -6.13027631938602        0.44502964645118
H           11.02360040059423       -3.75951621141879        0.98345679816449
H            9.18952912252584       -2.14713040945076        1.16372127429457
H            6.85250841784083       -2.83009149909464        0.78878931279992
H            5.52875723306129       -3.31729255738740       -1.20705223141475
H            3.32699322684254       -2.23114564129626       -1.19302651713125
H            1.93903964534681       -1.07453298364208        0.28445512267371
H            1.78086861680249        0.84897492492527        0.08525117998762
H            1.28018960341782        5.01620786898245        1.34608743856488
H            3.32512445610215        6.36080631387493        1.16768259019743
H            3.43007648482950        7.73870419101947       -0.83356123313786
H            4.01422729006715       10.09151512428498       -1.26792813772966
H            6.34796104222192       10.83276537324077       -1.29185773168727
H            8.18638999059129        9.22382271742936       -0.90679272245439
H            9.70055217353880        6.98958197880261       -0.41303900293948
H           10.50434125842457        4.70058793834842        0.06727034412050
H            8.91852585858872        2.86690381417493        0.41225711521951
H            6.48843435395681        3.24056762110497        0.26390753120078
H            4.94526954086538        3.53371894554081       -1.59394400550056
H            2.91305040043422        2.17460312807773       -1.39758410155447
H           -0.61401192566335        4.36288154412637        0.10140203062293
H           -2.62214744636165        3.01182644643952        0.29652512195484
H           -5.45601379450710        0.73554450543659       -1.55328785115129
H           -7.13710449876437        1.67624570112961       -3.05734517123185
H           -8.28618456907296        3.78437311022120       -2.48739126936410
H           -7.70865271247565        4.98510856220679       -0.41481141580710
