112
 energy: -179.341442436139 gnorm: 0.000149828671 xtb: 6.7.1 (edcfbbe)
C            6.51473318828909        3.88653370029368       -2.48377968158504
C            5.40845899641624        4.13177015471644       -3.28005705650759
C            4.27365300171072        3.35214474853184       -3.15436880566858
C            4.22762616806142        2.30913898478543       -2.23213913998598
C            3.01788678120105        1.49299078187372       -2.05878533312133
C            1.75981631133993        2.10838045597233       -2.05992035763061
C            0.60600258372500        1.40304246170670       -1.78852961935507
C            0.72505309878900        0.05073965566852       -1.50787265289676
C            1.96812890584949       -0.60945751668040       -1.60786627188776
C            3.11707373632041        0.11936354400769       -1.86468809265603
C            1.70607896390995       -1.99819025500352       -1.34213406056581
C            2.51633683938563       -3.11675518250334       -1.26172687683429
C            1.95347261388881       -4.33843856452441       -0.90820023618276
C            2.81104699220605       -5.52304330013713       -0.75195030012560
C            3.84859245686836       -5.77641639060732       -1.64657978312819
C            4.67476269937667       -6.87115786255446       -1.47547071576728
C            4.48406312508806       -7.72816187050001       -0.40430496198663
C            3.45676980082730       -7.48609377124666        0.49232757389185
C            2.62554868634001       -6.39557230732222        0.31906871965383
C            0.57677036326785       -4.42414112556879       -0.66214487934801
C           -0.25062230863758       -3.32265393817174       -0.74290740549811
C            0.32210751233824       -2.10377427642226       -1.07234010573406
N           -0.26078394264596       -0.85411083422257       -1.16159601446974
C           -1.47960858981908       -0.47329954172332       -0.57176267669264
C           -2.68466378141893       -0.93745038885019       -1.07946525433839
C           -3.90026365074024       -0.52501423560679       -0.54240610623004
N           -5.07039336961007       -0.94842157171181       -1.01776111935418
C           -6.22554226649114       -0.52521843331774       -0.51695976586043
C           -7.46920591950858       -0.97934903121736       -1.04334486346782
C           -7.51492378701927       -1.88671248374094       -2.11572804860662
C           -8.73256142711755       -2.29846371569780       -2.59432238048219
C           -9.89161895850058       -1.79346269472367       -1.98892966615789
N           -9.87422760135636       -0.94902492742823       -0.99118098450036
C           -8.70310044773161       -0.53287376802178       -0.50821213378477
C           -8.69765949592398        0.39978600316682        0.59121975036453
N           -9.86392528968594        0.81312770865751        1.08817227939600
C           -9.87142500260907        1.65833387798599        2.08538604833628
C           -8.70643831342343        2.16689175011285        2.67623108426143
C           -7.49361829507228        1.75793537934858        2.18320336854913
C           -7.45854762160240        0.84994876469458        1.11095067800338
C           -6.22019282451942        0.40023295344488        0.56844033320290
N           -5.06024289464668        0.82999945524923        1.05221449641514
C           -3.89486816239663        0.41641169853394        0.55684864031267
C           -2.67385327751118        0.84258972135685        1.07024165432212
C           -1.47351605087726        0.39546937024177        0.53643673436971
N           -0.24888628655543        0.80276103756544        1.09626083485230
C            0.76197076816935       -0.07202105083335        1.44446860814878
C            0.68336291434284       -1.42551263442084        1.73495191977456
C            1.85366155393874       -2.08820775032171        2.03971942319032
C            3.09106700867309       -1.43137923336698        2.07517967683611
C            4.31520809237163       -2.19685130803840        2.35094236745835
C            5.32858130129930       -1.67453070423747        3.15223584197764
C            6.47721045177730       -2.40337121518804        3.39867201191907
C            6.63781954804175       -3.66318369823447        2.84556869840649
C            5.63836244902096       -4.19217629181930        2.04581296798350
C            4.48719672289330       -3.46713809419141        1.80387334994055
C            3.14896796793615       -0.05985715261093        1.84942179896092
C            1.98520821871887        0.62527072962112        1.54374117917366
C            1.68825121781607        2.00111721930765        1.24758331462858
C            2.47054443770852        3.13580287540749        1.12500584606418
C            1.87045219700927        4.33851089318995        0.76889274015724
C            2.68830606329353        5.54573699690379        0.58425043498649
C            2.25355369210391        6.78821359798090        1.04041907026513
C            3.02833970976362        7.91729063384125        0.85119633747624
C            4.24568166258535        7.82613938937509        0.19671521261748
C            4.68624824988450        6.59615078916121       -0.26273687237526
C            3.91733621067710        5.46467542607653       -0.06752453217460
C            0.48622346059875        4.38878976010439        0.55742273967454
C           -0.31068271820070        3.26686307275518        0.65922251512598
C            0.29893684842097        2.06709972453650        0.99300243872717
C            5.34872038428553        2.06885288897847       -1.43920710882731
C            6.48100283746734        2.85235617753124       -1.56288520104767
H            7.39994666428383        4.49792414285115       -2.58033757234420
H            5.42999379927339        4.93511572970354       -4.00206198005475
H            3.41945901106094        3.54093546439910       -3.78794468758477
H            1.69610795258519        3.17176769433702       -2.23478069415564
H           -0.35705677066347        1.89128052078524       -1.78237220724630
H            4.07563372348620       -0.37418313097260       -1.91857824255959
H            3.57878757729805       -3.03099615545703       -1.43283859737494
H            3.99450638046207       -5.11881238941696       -2.49118967002925
H            5.47184162720493       -7.05747349893143       -2.18071134823639
H            5.13337235562678       -8.58052675353845       -0.26846666021265
H            3.30582159934830       -8.14764734603149        1.33313676069267
H            1.83873773938045       -6.20248837922923        1.03433006491787
H            0.15082091878339       -5.38511275608967       -0.41386041280311
H           -1.30820505199379       -3.40646166476586       -0.54086989301482
H           -2.69134091673129       -1.60476161343524       -1.92671416706086
H           -6.58188819477872       -2.23561642460542       -2.53417940463272
H           -8.80574721501141       -2.99394892738677       -3.41579561189070
H          -10.87224565402762       -2.09264493899246       -2.33504212713166
H          -10.84856413753294        1.95535601061501        2.44304433394901
H           -8.77147104934076        2.86294399425245        3.49791602248990
H           -6.55649815221790        2.10969223082676        2.58997237945209
H           -2.67147312574594        1.51018754950729        1.91729439230600
H           -0.26412366285189       -1.94348386053553        1.72598224288629
H            1.81511503304538       -3.14175539094690        2.27117528831679
H            5.20414092077919       -0.70045863157211        3.60301662204113
H            7.25107858572770       -1.98796330687207        4.02819633315299
H            7.53719149760381       -4.22940507535810        3.03814560301874
H            5.75259823980140       -5.17236891883560        1.60511342120189
H            3.72084955774854       -3.88054635347524        1.16711303842516
H            4.09233711744949        0.46341943847290        1.88810470346708
H            3.53336389035645        3.08866231895012        1.30663612430714
H            1.31205740518080        6.86400665076024        1.56524457781615
H            2.68206206566002        8.87340488846139        1.21660284338522
H            4.84747813437259        8.71030620503684        0.04607095512741
H            5.63166770939663        6.51492788372868       -0.77914647552157
H            4.25934016596838        4.51243194136850       -0.44370215871385
H            0.03693266107138        5.32862494135570        0.27225719342372
H           -1.37157966657188        3.31874442666256        0.46353270775499
H            5.31834407854657        1.27472216870524       -0.70679913859224
H            7.33925463161057        2.65932183000177       -0.93532600773949
