112
 energy: -179.384380745104 gnorm: 0.000063934720 xtb: 6.7.1 (edcfbbe)
C            6.55730039645457        3.76557066180845       -2.46510027473676
C            5.46398151183764        4.01169696172136       -3.27873211577081
C            4.31946861354654        3.24536372036723       -3.15764343595511
C            4.25135594149650        2.21509972552695       -2.22296507323875
C            3.03080643933535        1.41411593978874       -2.05098607354481
C            1.78057330617202        2.04419929375736       -2.06383546692059
C            0.61755021221380        1.35593671772409       -1.78577996795806
C            0.72130883791239        0.00784042969733       -1.48348482741549
C            1.95414179739360       -0.66948417543752       -1.57970380908760
C            3.11262883152205        0.04181778256105       -1.84415416687816
C            1.67451999129944       -2.05312851148561       -1.30521423395934
C            2.47454569554344       -3.17869602064689       -1.21409136118992
C            1.90047815678331       -4.39113111332707       -0.84966120933064
C            2.74809901900483       -5.58129850048422       -0.67746704192282
C            3.78099050804992       -5.85728334967246       -1.57030014363158
C            4.59838487883290       -6.95617209960800       -1.38368040243085
C            4.40271691839348       -7.79454744046158       -0.29883041760121
C            3.37972125469267       -7.52961799956231        0.59611955020850
C            2.55766903767621       -6.43455082719175        0.40768271427683
C            0.52340401807073       -4.46138049426698       -0.60495021756105
C           -0.29407605328498       -3.35259896811724       -0.69820037432846
C            0.29005939426429       -2.14338982330340       -1.03848107417158
N           -0.27795113475060       -0.88316157967533       -1.12918300222078
C           -1.49562354292241       -0.48831280897004       -0.56080368188220
C           -2.68333606841885       -0.97832364477187       -1.03393045587251
C           -3.90656149071481       -0.51974926711361       -0.50522061021266
N           -5.06033799029675       -1.00291146726210       -0.98285012985366
C           -6.18462713054622       -0.52122611078592       -0.48511099043035
C           -7.44429110937662       -1.02342734980497       -0.98364651181047
C           -7.49581409835695       -2.00549452334305       -1.97847741456710
C           -8.72406208412562       -2.44778722216245       -2.41690913367002
C           -9.86835509940319       -1.89083987298348       -1.84321351690400
N           -9.84065754847473       -0.96926310637606       -0.90998350869482
C           -8.66140879582403       -0.52912505889842       -0.47385448014514
C           -8.65252259681363        0.49344945403039        0.56061609706028
N           -9.82415406305667        0.93516155428164        1.01528390081344
C           -9.83588882440264        1.85692610736889        1.94866792588412
C           -8.68194982298106        2.41231402390350        2.50425828773343
C           -7.46135576714880        1.96845602296339        2.04644643274791
C           -7.42685297969086        0.98636268806210        1.05091973895704
C           -6.17583173224049        0.48338153530813        0.53177113384575
N           -5.04319257164733        0.96489846179253        1.01036792525510
C           -3.89764384161062        0.48228349616350        0.51262410163764
C           -2.66539819677631        0.94279945202720        1.01831307586653
C           -1.48557248407625        0.45521930727581        0.52297238015709
N           -0.25859692336378        0.85628001303264        1.06660800769181
C            0.74847210749421       -0.02392518571185        1.42418121695727
C            0.65793207660968       -1.37058048050383        1.73766145065035
C            1.82300112247619       -2.03804101563410        2.05342004470074
C            3.06556680237229       -1.39119215400838        2.07847521271022
C            4.28438356849322       -2.16463787463040        2.35913888716293
C            5.30901597429162       -1.64039979231123        3.14423003674059
C            6.45362934345387       -2.37573031522054        3.39079351085162
C            6.59830628949888       -3.64470925099254        2.85481064461409
C            5.58676838652909       -4.17644202786909        2.07244088887963
C            4.44011790762722       -3.44435401360511        1.82981425498717
C            3.13330135916390       -0.02374814234437        1.83694989848316
C            1.97439834890301        0.66617729920632        1.52089798577594
C            1.68752854908551        2.04192045317134        1.21496237434864
C            2.48225130536242        3.16755802951713        1.08141948935723
C            1.89577651339013        4.37192921590417        0.71269638699365
C            2.72727610622234        5.56794114075007        0.51060986013171
C            2.31030575501734        6.82048824160445        0.95445758136461
C            3.09704144839481        7.93807372782345        0.74613529889723
C            4.30898311897137        7.82444601109693        0.08544748947176
C            4.73212471502585        6.58378968476009       -0.36121449656954
C            3.95070167260860        5.46411881298293       -0.14776168884144
C            0.51283512100394        4.43431439346787        0.50104408103669
C           -0.29652885598349        3.32164665873957        0.61591704742486
C            0.29985491849910        2.12021130877035        0.96195707594569
C            5.35951088455751        1.97327715625263       -1.41287295633327
C            6.50129952673062        2.74362012033278       -1.53176824577870
H            7.44975168461272        4.36700110145739       -2.55754529942395
H            5.50283650342433        4.80576790142959       -4.01022742211935
H            3.47486777160063        3.43532923102127       -3.80368306310832
H            1.72949711060887        3.10577903217563       -2.25307625494941
H           -0.33923649718317        1.85685372521292       -1.78938563229596
H            4.06465489888436       -0.46456638790598       -1.89325293516583
H            3.53786407461699       -3.10355220704407       -1.38444289776007
H            3.93063830222472       -5.21378867694689       -2.42510499286485
H            5.39252051811596       -7.16013693089743       -2.08737091339186
H            5.04512724948361       -8.65012796121367       -0.15089889211523
H            3.22500499986333       -8.17662274607675        1.44751894406234
H            1.77406031229412       -6.22327647690962        1.12134715216712
H            0.08775561988098       -5.41534213760587       -0.34668990319286
H           -1.35211567668713       -3.42674789216233       -0.49461998153040
H           -2.70475197681792       -1.69220158983800       -1.84267072833032
H           -6.56914745002498       -2.39024298106483       -2.37637526655777
H           -8.80630842836510       -3.20364095053515       -3.18249990326890
H          -10.85548417322775       -2.20708436317406       -2.15507830407588
H          -10.81754746667596        2.17440422887036        2.27615371034277
H           -8.75113929790591        3.16822435932221        3.27108044335751
H           -6.52796539732313        2.35207871490281        2.42943157516956
H           -2.67274314718703        1.65771337721324        1.82637268222337
H           -0.29318173062016       -1.88253409112050        1.73702431296515
H            1.77495847845161       -3.08749617417686        2.30112699696417
H            5.19772658359186       -0.65875111237570        3.58183810768197
H            7.23692583271628       -1.95790612305915        4.00696242892685
H            7.49453500038904       -4.21596908835650        3.04728354530812
H            5.68793146619610       -5.16423354525368        1.64561068080485
H            3.66433604327305       -3.86078677940115        1.20650221447805
H            4.07941806210698        0.49461267139414        1.87276503790373
H            3.54469323540837        3.10949475605710        1.26185463909469
H            1.37274285711158        6.91392055938371        1.48355901721784
H            2.76413130379474        8.90278354330944        1.10133409055690
H            4.92009322124436        8.69954156763960       -0.08015368105066
H            5.67347689424203        6.48484187232024       -0.88200972735602
H            4.27905221975992        4.50311318814318       -0.51388646090524
H            0.07278027999635        5.37539214215837        0.20566717580939
H           -1.35648520244342        3.38502093615667        0.41805720907271
H            5.31146459151387        1.18821615227497       -0.67168719732738
H            7.34946193587819        2.54990046803492       -0.89084977089725
