48
 energy: -80.927665912004 gnorm: 0.000058820337 xtb: 6.7.1 (edcfbbe)
N            1.86773090317240       -6.58472851794192       -0.09265399757740
C            1.41699901972338       -5.52479142652913       -0.07107907084129
C            0.86567421905708       -4.23497269256241       -0.04633577565221
C            1.19390641845678       -3.34359849207567        0.98813632398733
C            0.65645515709173       -2.07995938623822        1.00747202301468
C           -0.23713844403358       -1.67559670154527        0.00295934291450
N           -0.77074645698309       -0.38909927312468        0.02576735312267
C           -0.01635355135323        0.80771337606733        0.12600761989951
C            1.37707052952861        0.96330673475191        0.04196968810374
C            1.91335627630132        2.23141460826998        0.41648946485876
C            3.25558787757365        2.48070817864231        0.36935906786335
C            4.12546635779098        1.47982800011968       -0.07579630640447
Br           5.99790299849125        1.81483590286569       -0.13025557980108
C            3.63359714407710        0.24503506104412       -0.50054377001774
C            2.28932274116273       -0.01362427055230       -0.44607601512177
N           -0.83618949184149        1.87788952816906        0.21235358523205
C           -2.07002576655671        1.42841628284942        0.09082186549483
C           -3.26972514802403        2.19312514665614        0.02728558789077
C           -3.22555081034699        3.59068884447367        0.01917177390390
C           -4.38794380649288        4.32364701017553       -0.10147529185870
C           -5.59830640288449        3.65589776059931       -0.22725002519931
C           -5.65202714635670        2.27208385341427       -0.21095018002724
C           -4.49731239350119        1.49733918862402       -0.06880395931515
C           -4.52212266381349        0.04149436706837        0.01072685750280
C           -5.72351794807695       -0.65891056251836        0.07841587655358
C           -5.77107264493168       -2.03631777198909        0.20580492375583
C           -4.58826125827537       -2.76804128856018        0.30004534294654
C           -3.38148484295411       -2.12381276268773        0.23140410460112
C           -3.30173947630237       -0.71822400365624        0.06326643501571
C           -2.09365993146739       -0.00995780542287        0.00134068123801
C           -0.56465694058081       -2.56598802391113       -1.03147618207370
C           -0.01851367798711       -3.82563948415681       -1.05936440360796
H            1.86774098802812       -3.66284667188358        1.76923326115285
H            0.90531690753056       -1.39167592746146        1.80117429945589
H            1.22337121076983        2.98556692654755        0.75794956572693
H            3.64953765951439        3.43796556277901        0.67422276832069
H            4.31387433265732       -0.50145614621874       -0.88198458864172
H            1.92711856138723       -0.95171312220977       -0.83017102961891
H           -2.26076916091108        4.06690729573325        0.09998173283874
H           -4.35644662434598        5.40234171593539       -0.10678593799435
H           -6.51359225735439        4.21844553019092       -0.33782560179839
H           -6.61615690921667        1.80249435609440       -0.31772441675687
H           -6.65866068960863       -0.12432921730502        0.04782485818361
H           -6.72465310567408       -2.53959378882199        0.25076926836081
H           -4.62096920235301       -3.83893490010852        0.43327111900572
H           -2.47260432110733       -2.69217452086185        0.33274317735870
H           -1.23559711164555       -2.24389886221178       -1.81410425911174
H           -0.25591093774325       -4.50708498739269       -1.86271835027415
