48
 energy: -81.014863567081 gnorm: 0.000074807591 xtb: 6.7.1 (edcfbbe)
N            1.94697217890049       -6.46726931302173       -0.07245252490336
C            1.48295842736712       -5.41819098448131       -0.05584275657300
C            0.90828345550218       -4.12671726864609       -0.03787712758963
C            1.12323485550715       -3.28278146359736        1.05352241585867
C            0.55713664265543       -2.02385764862601        1.06897013637590
C           -0.22736107490099       -1.60150116088421       -0.00159305024285
N           -0.77884005094989       -0.30692688434424        0.00590095638287
C           -0.05451957485578        0.86819837644539       -0.00272522966820
C            1.39657200982906        0.96365565408088       -0.02341060790997
C            1.98754729005167        2.04515024444655        0.63435342608929
C            3.35813582883520        2.20647426778246        0.64016898097412
C            4.14736354111112        1.28067732864091       -0.02316006118339
Br           6.04963664772513        1.48868198782050       -0.01473253211004
C            3.58511983567568        0.21300038198711       -0.70157209418682
C            2.21130986889509        0.05940088079036       -0.70409549925534
N           -0.83092060178229        1.92270001857566       -0.00916590504194
C           -2.10627216988085        1.45392415547410       -0.00999962022589
C           -3.31277430826990        2.20830335605591       -0.06126747775732
C           -3.29395732046414        3.60550642157758       -0.13102315590771
C           -4.46836806786844        4.31159928181664       -0.21687155666195
C           -5.68001553406632        3.62339352789544       -0.23933807670881
C           -5.71040625695470        2.25000879495101       -0.16512602287455
C           -4.53231197918157        1.49320081952471       -0.06556089035658
C           -4.53266221576986        0.04428188127624        0.05159755846757
C           -5.72775249054922       -0.68474298450910        0.13866272314581
C           -5.74050782655194       -2.05084645606981        0.29546357379003
C           -4.54356955541358       -2.75379036629780        0.39092263429295
C           -3.35102366187620       -2.07813403070659        0.30342402587913
C           -3.31541972946375       -0.68925460269158        0.11277528223050
C           -2.10818077131363        0.06057837996409        0.01389308860612
C           -0.43930990307080       -2.44249571343748       -1.09436125472914
C            0.12381338676080       -3.70154109564966       -1.11334300276367
H            1.72894245110212       -3.61952472791134        1.88096822510639
H            0.71617498964150       -1.36222288563830        1.90691558296707
H            1.35188012846105        2.75609249296832        1.13801091016518
H            3.81025283227056        3.04035293639670        1.15439751703109
H            4.21220772337045       -0.48867428915346       -1.22968695221518
H            1.78102602442365       -0.75667742223039       -1.26269184180706
H           -2.33475659761036        4.10017133189623       -0.12225352905145
H           -4.45735350292760        5.39014418943874       -0.27247013523439
H           -6.60662190747335        4.17384802449933       -0.31548753541520
H           -6.67121595377397        1.76142050557691       -0.18950077062636
H           -6.67336071325907       -0.16973053075888        0.09387873564413
H           -6.68161496199117       -2.57689105671031        0.35829161190575
H           -4.55014175421029       -3.82356826514030        0.53882914650580
H           -2.42713197489131       -2.62504624419557        0.40006897737824
H           -1.04847529136134       -2.10168797474505       -1.91834897160767
H           -0.03535990726605       -4.35883045947919       -1.95468700153453
