48
 energy: -81.014852232054 gnorm: 0.000035696473 xtb: 6.7.1 (edcfbbe)
N            4.92997048297630       -5.04782944786507       -0.20319422632787
C            4.16966639954252       -4.18934668676513       -0.16997938444549
C            3.23223014042111       -3.13180327876671       -0.13114842920249
C            3.19924927445690       -2.26990343062136        0.96678847242075
C            2.28228308222465       -1.23859297655379        1.00153313699119
C            1.39278642271290       -1.06351179905867       -0.05583017686615
N            0.48134890863072        0.00858488175942       -0.02838600271097
C            0.82577223726983        1.34535390722011       -0.03983906187119
C            2.18406923825378        1.86248253267826       -0.09200860626164
C            2.45035426098033        3.06385886350142        0.56927484470582
C            3.71584981286112        3.61433156109171        0.55400567259052
C            4.72545201546965        2.96165255090562       -0.13507857797988
Br           6.48737762623620        3.70827262635300       -0.15252132197079
C            4.48115034747294        1.78410537251628       -0.82063837761526
C            3.21068932313780        1.23969758361319       -0.80124667593426
N           -0.22708069733250        2.12337847672319       -0.01123037055435
C           -1.30652314561133        1.29845214887272        0.01635353876573
C           -2.68281706808978        1.66312930419356        0.01644207342213
C           -3.07920947899501        3.00413474483562       -0.02726562374563
C           -4.41182461418374        3.33306209321369       -0.05743344752614
C           -5.36695038486580        2.31818231420733       -0.04870574529743
C           -4.98839769483511        0.99647325583175       -0.00072697867933
C           -3.63667594319086        0.61999212338066        0.04124437555886
C           -3.20558066493032       -0.76549515571227        0.12835567818385
C           -4.12880164705161       -1.81619124250065        0.23385530135835
C           -3.73277419361313       -3.12715412751321        0.35858298669614
C           -2.37929281830919       -3.44630375763853        0.40297163584722
C           -1.44275335806591       -2.44737861705412        0.29633566427136
C           -1.82478549650631       -1.10739737039672        0.13757746779087
C           -0.89630257876539       -0.03341776340372        0.02003544794263
C            1.42666559552367       -1.92264328683565       -1.15444792019797
C            2.34097402395147       -2.95477647810463       -1.19285636918489
H            3.88943607296019       -2.41511708168483        1.78382620995919
H            2.24695261311486       -0.56528843284332        1.84456244045862
H            1.64676377490109        3.55626511767976        1.09371573198497
H            3.91825001275696        4.53892023585277        1.07204266281043
H            5.27248479400666        1.29875184739282       -1.37084214948420
H            3.02319986002664        0.33932722404865       -1.36452135223249
H           -2.30863483342202        3.75960874022610       -0.04300653554543
H           -4.72093889581551        4.36731799205391       -0.09247146951051
H           -6.41692373542126        2.57134040732115       -0.07985376745275
H           -5.76305471662404        0.24656524816351        0.00067362678752
H           -5.18519822687986       -1.60312110439787        0.22742963638812
H           -4.47405976444964       -3.90870900693258        0.43656406436295
H           -2.06509812822123       -4.47223319223337        0.52554677025532
H           -0.39592706357402       -2.69837790379510        0.35261600199694
H            0.73189200092387       -1.77469988455214       -1.96787135291376
H            2.37473382794009       -3.62395012839080       -2.03922851802791
