  94
       -150.46562844
 N          1.9488533060       10.0751893539       -0.1235598750
 C          1.4084383456        9.0648499617       -0.0910466863
 C          0.7012821831        7.8380030602       -0.0475272259
 N          1.3837899460        6.7058379509       -0.0792467198
 C          0.7083420522        5.5585884046       -0.0401043753
 C          1.4319675274        4.3186981480       -0.0624899742
 C          2.8319715997        4.3271076860       -0.1096330816
 C          3.5417698289        3.1542375846       -0.1161639993
 C          2.8703631585        1.9244446761       -0.0766030262
 C          3.6115319559        0.6611542926       -0.0744547814
 C          4.8041002821        0.5272190180        0.6375391496
 C          5.4867665319       -0.6688214522        0.6645268752
 C          5.0068023435       -1.7775081302       -0.0376021000
 N          5.6882164885       -2.9898103080       -0.0084504039
 C          7.0886430458       -3.0137421543        0.0675451034
 C          7.7347086798       -3.9698597708        0.8495798667
 C          9.1145193378       -3.9988865151        0.9122425219
 C          9.8682932938       -3.0756620655        0.2061442457
 C          9.2303259470       -2.1214265406       -0.5693921468
 C          7.8511867481       -2.0891924273       -0.6445837261
 C          4.9809704438       -4.1992353001       -0.0586500583
 C          3.7683853487       -4.3387321834        0.6156193588
 C          3.0752602852       -5.5324873674        0.5605997969
 C          3.5816788302       -6.6052844664       -0.1547207424
 C          4.7898888067       -6.4741658353       -0.8195461179
 C          5.4856387343       -5.2813349490       -0.7783915060
 C          3.8238723704       -1.6420470206       -0.7689474433
 C          3.1387846022       -0.4478151475       -0.7778031785
 C          1.4831177660        1.9180176148       -0.0335450711
 C          0.7312455308        3.0933646701       -0.0289622654
 C         -0.7232960587        3.0898983811        0.0183245328
 C         -1.4696274320        1.9108593617        0.0231979917
 C         -2.8567116452        1.9102753634        0.0742728752
 C         -3.5948618833        0.6452979990        0.0723798298
 C         -3.1084270880       -0.4725315495        0.7523892510
 C         -3.7953524752       -1.6658800477        0.7454688472
 C         -4.9958458150       -1.7910787729        0.0414382735
 N         -5.6845625392       -2.9996815465        0.0191608779
 C         -7.0868248072       -3.0110710665       -0.0204749015
 C         -7.8209584517       -2.0882144408        0.7231633517
 C         -9.2017319681       -2.1038494986        0.6820474607
 C         -9.8695942182       -3.0403232657       -0.0899629281
 C         -9.1441941911       -3.9627807671       -0.8260742523
 C         -7.7629332748       -3.9499090137       -0.7978471756
 C         -4.9845452343       -4.2138488819        0.0312590990
 C         -5.4801003614       -5.3061135653        0.7421290046
 C         -4.7920738436       -6.5040840055        0.7446948733
 C         -3.6002550352       -6.6306423719        0.0500472675
 C         -3.1026542017       -5.5477808837       -0.6561702480
 C         -3.7885118042       -4.3487411305       -0.6729954289
 C         -5.4882289277       -0.6746463615       -0.6393843225
 C         -4.8023143893        0.5194155005       -0.6160618652
 C         -3.5328467301        3.1375342405        0.1217139568
 C         -2.8288618051        4.3137457563        0.1105836105
 C         -1.4291980033        4.3121140910        0.0550281330
 C         -0.7115277413        5.5553509187        0.0286134401
 N         -1.3925184549        6.6994322679        0.0646389483
 C         -0.7155120875        7.8347487270        0.0301828100
 C         -1.4282111925        9.0584274268        0.0712141057
 N         -1.9745733155       10.0654576522        0.1027791981
 H          3.3321101823        5.2826181883       -0.1420677443
 H          4.6196420933        3.1732126664       -0.1711283710
 H          5.1797915651        1.3618977372        1.2106837510
 H          6.3948999867       -0.7596567736        1.2419738141
 H          7.1473495977       -4.6858617777        1.4059190482
 H          9.6034944352       -4.7434530796        1.5227118861
 H         10.9458670890       -3.0999116615        0.2594819823
 H          9.8101055606       -1.4015975854       -1.1279285239
 H          7.3548356479       -1.3524800221       -1.2596056296
 H          3.3782826035       -3.5074075160        1.1848943339
 H          2.1375884242       -5.6274589848        1.0882554363
 H          3.0392853184       -7.5375581084       -0.1921067610
 H          5.1910972699       -7.3041519368       -1.3818561237
 H          6.4231870404       -5.1778258344       -1.3049101745
 H          3.4521948669       -2.4825244601       -1.3363479726
 H          2.2401842350       -0.3607649746       -1.3710061028
 H          0.9876615613        0.9626727809        0.0229354405
 H         -0.9690250096        0.9585523314       -0.0387948274
 H         -2.1970777943       -0.3940991823        1.3270372442
 H         -3.4121919506       -2.5133260471        1.2946823693
 H         -7.3008844484       -1.3649448684        1.3345114789
 H         -9.7592418672       -1.3852367073        1.2642941556
 H        -10.9483714764       -3.0516480366       -0.1169168288
 H         -9.6568015556       -4.6936513691       -1.4336647662
 H         -7.1979241097       -4.6645055959       -1.3785783338
 H         -6.4046691930       -5.2065962712        1.2918488576
 H         -5.1861588486       -7.3420438361        1.3002202496
 H         -3.0638734790       -7.5670951919        0.0575075246
 H         -2.1780068755       -5.6389745663       -1.2069609180
 H         -3.4061272963       -3.5096512272       -1.2360937895
 H         -6.4094369232       -0.7575093836       -1.1969967021
 H         -5.1889758895        1.3595856667       -1.1735862755
 H         -4.6102129630        3.1524116941        0.1860847982
 H         -3.3336173772        5.2667028717        0.1466705449
