  44
        -70.24943445
 C          6.4275062482        0.8325033136       -1.0566265681
 C          6.0229914358       -0.0777238349       -2.0215884015
 C          4.8465182369       -0.7820020099       -1.8550138761
 C          4.0718715284       -0.5975155991       -0.7158058069
 C          4.4771608238        0.3145640862        0.2504160040
 C          5.6532469876        1.0329293962        0.0695621121
 S          3.5812960918        0.5899371350        1.7549895040
 C          1.9067583512        0.4321533242        1.2203891455
 C          0.9513545683        1.2421512237        1.8326596372
 C         -0.3765395197        1.1435757833        1.4921792490
 C         -0.8089972585        0.2231322722        0.5206989857
 C         -2.2059168449        0.1012409448        0.1631532749
 C         -2.8289430286       -1.1922871033        0.1425235003
 C         -2.1782492618       -2.3502874763        0.5696020553
 C         -2.8039109096       -3.5975162299        0.5249246743
 C         -4.1034933492       -3.7090155788        0.0768488639
 C         -4.8018444554       -2.5642693681       -0.2916740346
 C         -4.1982946645       -1.3017438366       -0.2473609015
 C         -4.9317752351       -0.1363078355       -0.5371439346
 C         -4.3498668929        1.1439751761       -0.4873740969
 C         -5.0963638875        2.2890957359       -0.7894737527
 C         -4.5027359708        3.5463236316       -0.8255303003
 C         -3.1490360737        3.6658259659       -0.5909558146
 C         -2.3850767831        2.5387093674       -0.2818185113
 C         -2.9634798449        1.2738624971       -0.1707541419
 C          0.1629694780       -0.5804866192       -0.0900373653
 C          1.4964728880       -0.4837100439        0.2546855132
 S          2.6201668040       -1.5980824241       -0.5470873564
 H          7.3442742777        1.3875123516       -1.1811929350
 H          6.6221826245       -0.2386066328       -2.9042994681
 H          4.5167001969       -1.4949341818       -2.5951122374
 H          5.9527654614        1.7370663836        0.8306652987
 H          1.2747873967        1.9373630510        2.5925470669
 H         -1.1071018592        1.7456443946        2.0101272593
 H         -1.1742937268       -2.2903617847        0.9595496967
 H         -2.2593002584       -4.4725298137        0.8466212402
 H         -4.5866320001       -4.6734772954        0.0301770388
 H         -5.8318300220       -2.6376239758       -0.6092032967
 H         -5.9738273486       -0.2273120785       -0.8069191859
 H         -6.1495659518        2.1818673803       -1.0043830109
 H         -5.0986604211        4.4170637538       -1.0542485565
 H         -2.6676758832        4.6307373162       -0.6468438127
 H         -1.3216943807        2.6567292187       -0.1429647761
 H         -0.1243827891       -1.2720392247       -0.8668746172
