44
 energy: -70.349548456371 gnorm: 0.000065553443 xtb: 6.7.1 (edcfbbe)
C            6.36940916500950        1.16775872290059       -0.65607124581685
C            5.95615435080495        0.75075713285428       -1.91207404893252
C            4.79593010288189        0.01158845070140       -2.04786476739864
C            4.05168229977332       -0.33369180239161       -0.92700877751272
C            4.46539042555198        0.08460544709146        0.33064736692357
C            5.62057877184937        0.84491546443351        0.46007784270482
S            3.58575970982406       -0.34821010971501        1.81127036580615
C            1.90434000729536       -0.19272932974269        1.26321240473791
C            0.97565897900441        0.34072806955932        2.14800738787238
C           -0.35626728456419        0.42605907873028        1.79439657167812
C           -0.78292435398335       -0.00427586550553        0.53964159258966
C           -2.21242528286196        0.06347332586853        0.16607590899395
C           -2.95738464774875       -1.12162228287152        0.06424301627327
C           -2.39375704554992       -2.39961727588710        0.32035234932123
C           -3.14183519363140       -3.53266629534843        0.21683826382388
C           -4.50360803411518       -3.46387975182675       -0.14524754612944
C           -5.08615270634304       -2.25802864537481       -0.38562718481981
C           -4.34290338485914       -1.05319492428051       -0.28499874436216
C           -4.93181327275374        0.18713792205276       -0.51062744284475
C           -4.20172416620254        1.36734788627170       -0.40984311975808
C           -4.79961729214903        2.63359390175436       -0.64034773646288
C           -4.07119345030568        3.77959242365908       -0.55390846967045
C           -2.69734594725441        3.72310082982304       -0.23787952846479
C           -2.08784916718938        2.52797746587788       -0.00470461214054
C           -2.81346374202662        1.30910628509563       -0.07001859964500
C            0.15400229923165       -0.51038481234410       -0.35250960270257
C            1.48982984801575       -0.61498784498745        0.00719458800729
S            2.60876019464522       -1.34198145619969       -1.16525729103291
H            7.27333205364800        1.74637791419766       -0.54397014285268
H            6.53517380961470        1.00171792366790       -2.78746013593786
H            4.45999905312304       -0.32075709437460       -3.01837470774735
H            5.92742275430640        1.16133990350108        1.44552008500694
H            1.31056911217646        0.66696315578277        3.12094446039466
H           -1.07558206315520        0.82222614531936        2.49521769131203
H           -1.35359563108703       -2.46077572727770        0.60522139242687
H           -2.69711872199549       -4.49728466060396        0.41487142767207
H           -5.07594379338514       -4.37686699935891       -0.22332343012074
H           -6.13049520775979       -2.19220805130221       -0.65638150090975
H           -5.98053577270689        0.23485714146911       -0.76956729537122
H           -5.85092285977068        2.66342726360297       -0.88969464298007
H           -4.53330215885950        4.74001084443616       -0.73098884518294
H           -2.13106216279472        4.64184229337636       -0.18507871872266
H           -1.03408134253716        2.49167147090863        0.23032889905771
H           -0.15367588730479       -0.84267208994960       -1.33288289721376
