44
 energy: -70.279000101648 gnorm: 0.000031171943 xtb: 6.7.1 (edcfbbe)
C            6.41546547532566        0.87622026683683       -1.04647381679102
C            6.01257301228920       -0.01019041634712       -2.03441757547505
C            4.84441576721225       -0.73180044905038       -1.87995501004498
C            4.07687194733406       -0.58720603279604       -0.73002047811448
C            4.48043939114491        0.30120655481210        0.25879509206936
C            5.64788706948853        1.03685133181338        0.09114356382042
S            3.58523697243069        0.52382884195181        1.77469943701518
C            1.90973218243189        0.38940007311671        1.22978838420208
C            0.95502758592173        1.19181437171792        1.85281134383134
C           -0.37234869529762        1.10308023061457        1.50507472832550
C           -0.80348175454691        0.20095169798494        0.51658381937685
C           -2.20344507309094        0.08794036934001        0.15691359928053
C           -2.83878611620401       -1.19977555628030        0.14467701676293
C           -2.19528784108176       -2.36420928945326        0.56637784839270
C           -2.83527256532152       -3.60526977911194        0.53550848815642
C           -4.14208877537963       -3.70399117036598        0.10574071204735
C           -4.83192717175679       -2.55258047954006       -0.26113060809100
C           -4.21359135273057       -1.29656636127350       -0.23174287556054
C           -4.93620081292640       -0.12478459453766       -0.52592443654155
C           -4.33942702929524        1.14967204329309       -0.49227097446532
C           -5.07386836448784        2.30100596219431       -0.80145135001728
C           -4.46602728040093        3.55200562380319       -0.84877103881895
C           -3.11072172792614        3.65867981207307       -0.61660430517037
C           -2.35847762813232        2.52491015165895       -0.30043600900661
C           -2.95005894270570        1.26646282597413       -0.18169681656854
C            0.16802991996624       -0.59236506013507       -0.10762030245451
C            1.50140411958404       -0.50555372896440        0.24393710484910
S            2.63203418471285       -1.60415748221980       -0.57377357856172
H            7.32551678579909        1.44436497425831       -1.16200963918979
H            6.60643989968875       -0.13912488667398       -2.92608400531631
H            4.51644623136631       -1.42624480402535       -2.63850379791912
H            5.94601241017110        1.72215203558865        0.87005204252015
H            1.27678750690836        1.87230597035712        2.62688278477364
H           -1.10241179224842        1.70102514332828        2.02895877371567
H           -1.18411529697644       -2.31500891749709        0.94052819779954
H           -2.29533782324635       -4.48523273435122        0.85305909188699
H           -4.63714481651368       -4.66325852007346        0.06969573353355
H           -5.86629275326913       -2.61680985827517       -0.56693290927854
H           -5.98108174508009       -0.20659945361201       -0.78818440428828
H           -6.12908942349281        2.20443836398274       -1.01284586122901
H           -5.05339522642284        4.42753883608873       -1.08353560223734
H           -2.61862594633915        4.61811823968335       -0.67996334966969
H           -1.29364494100677        2.63270236021437       -0.16081271631704
H           -0.11863129263407       -1.26972154865628       -0.89797130443270
