61
 energy: -75.822708598904 gnorm: 0.000039544055 xtb: 6.7.1 (edcfbbe)
C            5.18350546474035       -2.77731506269222       -0.02180196205644
C            3.85049195666832       -2.09381507611776        0.01146855965333
C            3.59562051326911       -1.03689938157924        0.87464301061912
C            2.35668038264186       -0.42232126086032        0.92943988544840
C            2.13612974336945        0.66655045661120        1.93423019471703
C            1.32530406315169       -0.81964287859498        0.03862692621505
B           -0.00146240684646        0.01618383709972       -0.00312015272184
C           -1.31757618472551       -0.83761040700936       -0.04260264753495
C           -2.35273148552039       -0.45875707828230       -0.93644159619415
C           -2.14614445471513        0.63014420856031       -1.94440670062581
C           -3.58188382461461       -1.09220429390506       -0.88218131239171
C           -3.82259075048862       -2.14982506542766       -0.01515129484352
C           -5.14841822572267       -2.84716412526042        0.01918047143479
C           -2.78612564361810       -2.55283950281433        0.82517965555628
C           -1.54652072195040       -1.94194370124339        0.80798021128068
C           -0.50291928517724       -2.43105368539783        1.76824242745580
C           -0.01183264652574        1.55085053363751       -0.00278935484587
C            0.89722943310588        2.31342316269553       -0.80792817604444
C            1.86535276561487        1.61514257073784       -1.71168124496204
C            0.88365804707126        3.69022902567466       -0.78197832659857
C           -0.01730143043491        4.40535890372261        0.00829042728237
C           -0.03910884392363        5.90066050425487        0.00823673547035
C           -0.91892172573241        3.67819316456123        0.79073129961558
C           -0.92726344857611        2.30256859110388        0.80540371029813
C           -1.89230033749220        1.59254230223199        1.70382782014647
C            1.56912568139402       -1.92513037886496       -0.80714197438076
C            0.53097184845237       -2.43449393707085       -1.76275485305496
C            2.81757603197779       -2.51666541531829       -0.82454858831912
H            5.81038210677426       -2.45033944298260        0.80469498584901
H            5.06418373329570       -3.85897588918058        0.03435380757456
H            5.69974748249599       -2.54947747397649       -0.95597347970799
H            4.37576853016705       -0.70467170428209        1.54745378077139
H            2.07770050615703        1.63729249944008        1.44058827902946
H            2.94976293049217        0.69835347511407        2.65614530566036
H            1.19670698879055        0.52086384539369        2.46529172401299
H           -2.96236673383276        0.65230915310793       -2.66373726086151
H           -2.09520901990924        1.60238088956718       -1.45310574638581
H           -1.20719325829332        0.49204597533803       -2.47839888079726
H           -4.36593081758380       -0.77501242496584       -1.55770329899423
H           -5.01725858164735       -3.92557804282537        0.09679088122337
H           -5.72195987216547       -2.51875547467296        0.88815826498302
H           -5.72847598340280       -2.62606913484910       -0.87416234108118
H           -2.96020508373520       -3.37062421780109        1.51252554976840
H            0.20513022222505       -3.09452159072959        1.27209967984303
H            0.06374141094680       -1.59684099690214        2.17466908772283
H           -0.96333131699445       -2.98047705519984        2.58759170755299
H            1.37043110278725        0.81405160491588       -2.25749171184933
H            2.67097386364991        1.15750005244094       -1.13663172392306
H            2.30460353326776        2.31410540335007       -2.42084424458321
H            1.58337025197141        4.23891404092662       -1.39967745229475
H           -0.85937096203499        6.26517320602093       -0.61401714354248
H           -0.19472527514308        6.28509158707237        1.01556819697793
H            0.89049011646456        6.30532066056160       -0.38622765451534
H           -1.61952522265804        4.22101605178673        1.41252066489263
H           -2.34210415060056        2.28599987946743        2.41174662141007
H           -2.69015108633678        1.12694815979169        1.12468270960663
H           -1.39115338482381        0.79655389490590        2.25139881255837
H           -0.04610308116142       -1.61055784115062       -2.17544213180085
H           -0.16853701209424       -3.10260876787003       -1.26084835155875
H            0.99759781600940       -2.98470195801112       -2.57803790961587
H            3.00324779335223       -3.33465351875010       -1.50858677194658
