61
 energy: -75.923439163101 gnorm: 0.000039650880 xtb: 6.7.1 (edcfbbe)
C           -2.38209009474347       -5.39871776143544       -0.02111019193884
C           -1.78738303201185       -4.02264686517369        0.00201388075394
C           -2.20327990124077       -3.05427671725552       -0.90031484436948
C           -1.65650309141378       -1.78057502928630       -0.90480890920769
C           -2.17442062601933       -0.79133829562206       -1.91100417275167
C           -0.64150372102929       -1.43452022055586        0.00514350043611
B           -0.00138302536660        0.00263995534740        0.00418580185289
C            1.56348864168007        0.16570778982045        0.01026186246429
C            2.20187782508834        1.03247276942312        0.91438497858679
C            1.41717878491861        1.83748561785147        1.91208250298551
C            3.58248744634701        1.16328126082406        0.91140127709680
C            4.37791738726112        0.46538443591147        0.01558961698553
C            5.87030384814295        0.60761236508437        0.03087278940565
C            3.75066545502789       -0.38642723074195       -0.88133574666088
C            2.37367376376433       -0.54870969519153       -0.88982988650998
C            1.77930354550515       -1.49826491128621       -1.89206661237346
C           -0.92476887052650        1.27630695258754       -0.00544713941542
C           -1.99922449911395        1.40366006280925        0.89332614142136
C           -2.30842893253170        0.32915180255955        1.89788558678553
C           -2.79937602937665        2.53511594330127        0.87947441999125
C           -2.58530626142191        3.56829426619202       -0.02188865657359
C           -3.48014294540490        4.77118257202525       -0.03339240411735
C           -1.53263227336818        3.44189623849771       -0.91408580570417
C           -0.70586436158604        2.32768080497588       -0.91184693684849
C            0.41859543195011        2.28051825854538       -1.90814812485898
C           -0.21823692903701       -2.41947829678294        0.91392744050760
C            0.85944630152929       -2.14031645974294        1.92377317608989
C           -0.79410575606695       -3.68148289728717        0.90644338170846
H           -2.20569426621458       -5.91556418141931        0.91960516240471
H           -3.45425681765903       -5.35346709723794       -0.20418691757621
H           -1.93106703003364       -5.98622916751912       -0.82237055631693
H           -2.97805902817290       -3.30041653765073       -1.61477233368526
H           -1.36494640200868       -0.24497267738471       -2.38736636422830
H           -2.81978220196712       -0.06117207621026       -1.42413408783153
H           -2.75303779623853       -1.29734178165506       -2.68153241448250
H            0.92350687719985        2.67321679348748        1.41762568903554
H            0.64616285342940        1.23925818572894        2.38990051141839
H            2.07420205339150        2.23727541391481        2.68218669930302
H            4.05150176548449        1.83178163980149        1.62164140791142
H            6.16428786434406        1.57692917955061        0.42810096234820
H            6.31185052034558       -0.16469584049200        0.66293227713632
H            6.28097978513297        0.49597042005831       -0.97068471614266
H            4.35278410246247       -0.94018041275765       -1.58991109992103
H            1.46898629178494       -2.41964821077506       -1.40071436472030
H            0.90249907805999       -1.07380373509661       -2.37337390776079
H            2.50902523770081       -1.75058358729325       -2.65914684442120
H           -1.40727579814180       -0.03222308227253        2.38578490559217
H           -2.77853375004982       -0.52224969699669        1.40722335636939
H           -2.99020041753602        0.70257824135009        2.65965637812788
H           -3.61534264442900        2.61553457889575        1.58581830910300
H           -4.44646292718590        4.51530151822894       -0.47028134575178
H           -3.65761969614832        5.12838209519108        0.97991565140651
H           -3.04290455971346        5.57664465993824       -0.61916185195124
H           -1.34760422082419        4.23453234318324       -1.62738370487324
H            1.36832805885705        2.48353970179761       -1.41460590514572
H            0.49673366805304        1.30349328618232       -2.37696807413583
H            0.27228762118651        3.02841325683441       -2.68523689188993
H            1.83559615152537       -2.13068219409914        1.44032465426524
H            0.86886161804680       -2.90826074268937        2.69495040590671
H            0.72083943007862       -1.17307152756855        2.39896538553645
H           -0.45593650167062       -4.41991848040400        1.62171069922572
