61
 energy: -75.822720720719 gnorm: 0.000057101974 xtb: 6.7.1 (edcfbbe)
C           -5.60865615647312       -1.82091247140320       -0.00286814879539
C           -4.18221277888448       -1.37217013303564       -0.01843323784080
C           -3.22656743217603       -1.98699933391239        0.79457334683603
C           -1.91383721254588       -1.57451510675137        0.81719978055647
C           -0.95588143057049       -2.25710435313776        1.74414245724019
C           -1.46633153692328       -0.49262275042999       -0.01029378957098
B           -0.01007393548522       -0.00818043396763        0.00005288661117
C            0.37581945628468        1.51156248727084        0.00509195384002
C            1.35984300958715        2.06411330262930       -0.84521796054826
C            2.18332977014649        1.20942649845014       -1.76252821681910
C            1.53004638962840        3.43475878060052       -0.90331233432582
C            0.79789469536613        4.30690949967812       -0.10029846514899
C            1.01299743708824        5.78780415336760       -0.17457912617825
C           -0.13457687003051        3.75882198928156        0.77212839738813
C           -0.33290781665704        2.39325690536511        0.86414599703990
C           -1.31161182777601        1.87264203520638        1.87163777630467
C            1.20841432027983       -0.99836626015372        0.00537483323813
C            1.17940463996502       -2.12343591660035       -0.85914282574444
C            0.09467761255910       -2.29063341484696       -1.87899617596577
C            2.16010972305837       -3.09430513751506       -0.76504190595272
C            3.22784791527252       -2.97441911104284        0.11600711344083
C            4.29195967470932       -4.02694533055877        0.18962683887044
C            3.27940499327064       -1.84331021538207        0.92685194175198
C            2.31659700091671       -0.85227029022608        0.86803773550493
C            2.44894338044698        0.31811063869460        1.79715635203225
C           -2.45838098082937        0.11881811379773       -0.84617336206684
C           -2.07596938953373        1.22875812157074       -1.77556364485733
C           -3.76545938070098       -0.31319672180660       -0.82702754504315
H           -6.14696212789351       -1.33241230420793        0.81259073574576
H           -6.10810949190541       -1.56417387446136       -0.93506466317164
H           -5.67627319824591       -2.89639996621447        0.15283660769785
H           -3.53728698648584       -2.80542302055886        1.43157043062927
H           -1.48940204243015       -2.87930225587748        2.46012854535633
H           -0.35672410961168       -1.52509652046857        2.28240722026596
H           -0.26262214626456       -2.88941744001262        1.18890267848992
H            2.56927291683409        1.79908572227213       -2.59229066475572
H            3.03130516610233        0.77349642859811       -1.23477142963485
H            1.58917572189281        0.38833601806129       -2.15632160055851
H            2.25670860665717        3.84507365416768       -1.59258350739837
H            0.35774199743298        6.22282223234876       -0.93214724581282
H            0.78531495284880        6.26257856206247        0.77788789649844
H            2.04070620992634        6.01856219580701       -0.44851354387035
H           -0.69933731621201        4.41657824486179        1.42024051196106
H           -2.21324688034168        1.50981468728354        1.37673189952080
H           -0.89159353408109        1.03458725647935        2.42560971363544
H           -1.59746828368429        2.65379147520901        2.57329957460723
H           -0.85065939765160       -2.53943130225565       -1.39564949067427
H            0.34075676455142       -3.08683366143196       -2.57882831208394
H           -0.06260389174753       -1.36723990982778       -2.43421323472596
H            2.11136595963312       -3.95571963985727       -1.41872042257814
H            5.24075494410933       -3.59982937309783        0.50837291914204
H            4.00874889789464       -4.79472560972699        0.91262269604144
H            4.42790172005918       -4.51063922685615       -0.77588971340192
H            4.10058857362140       -1.73677778596238        1.62383330368804
H            3.10406015141844        0.07293110134567        2.63136125835477
H            2.86783119158665        1.18200705147000        1.28147704426613
H            1.47610499660194        0.61132961688037        2.18430174426482
H           -1.15530909723804        0.98695651468974       -2.30325047834924
H           -1.89318704675071        2.15083245624539       -1.22292597303743
H           -2.86623191476957        1.41446024788263       -2.50041777428436
H           -4.49287606514405        0.16873950411413       -1.46804320980030
