  41
        -69.83225370
 C         -5.6110765027        1.8740339854       -0.0552928914
 O         -4.2137635297        1.7220643998       -0.0399221414
 C         -3.6945278901        0.4606253691        0.0047301087
 C         -4.4809804679       -0.7201325635        0.0435399258
 C         -3.8943251584       -2.0049510936        0.0993096377
 O         -4.4993598270       -3.0631547847        0.1358511362
 O         -2.5049369739       -2.0791643350        0.1133659625
 C         -1.7314730964       -0.9688287712        0.0612885071
 C         -0.3725028421       -1.1668006530        0.0638688846
 C          0.4672356491       -0.0294751226       -0.0007644833
 C         -0.0678566759        1.2812590730       -0.0114113366
 C         -1.4263996597        1.4868679195       -0.0071014430
 C         -2.3029829096        0.3423990690        0.0127363428
 C          1.0681834152        2.1723825926       -0.0167757074
 C          1.1988541944        3.5491413477       -0.0481550254
 C          2.4733254390        4.0954863571       -0.0775521717
 C          3.6044452567        3.2830891770       -0.0974920727
 C          3.4988550008        1.9030281250       -0.0685663519
 C          2.2267963709        1.3531966712       -0.0035581380
 N          1.8362958276        0.0271065151        0.0080443045
 C          2.6997927679       -1.0705356898       -0.0083365337
 C          2.4957596794       -2.1093871792       -0.9168903824
 C          3.3528492797       -3.1922081594       -0.9263340400
 C          4.4166754151       -3.2520683269       -0.0390923125
 C          4.6201603314       -2.2204683375        0.8648996860
 C          3.7688745430       -1.1332221783        0.8860149462
 H         -6.0722887702        1.4640861018        0.8489116364
 H         -5.7876108989        2.9481706183       -0.0931278318
 H         -6.0586701331        1.4035565626       -0.9366414576
 H         -5.5563209648       -0.6920590742        0.0358238214
 H          0.0199985190       -2.1673943761        0.1313047564
 H         -1.8655793472        2.4680369756       -0.0100963249
 H          0.3245931892        4.1812283742       -0.0559175250
 H          2.5941824956        5.1679257299       -0.0988335525
 H          4.5826444726        3.7371298948       -0.1409568982
 H          4.3794198743        1.2801239022       -0.1079398465
 H          1.6821188959       -2.0450576186       -1.6229897886
 H          3.1929864480       -3.9920719477       -1.6333159969
 H          5.0833730070       -4.1004126950       -0.0501756847
 H          5.4423935656       -2.2678521994        1.5629317346
 H          3.9056697675       -0.3423781948        1.6080294553
