41
 energy: -69.933625230793 gnorm: 0.000049465367 xtb: 6.7.1 (edcfbbe)
C           -5.61107965275805        1.84870139355136       -0.00307760652727
O           -4.21248686539437        1.66946223042106        0.00770650421411
C           -3.72719978068178        0.41397621895164       -0.01850589393284
C           -4.46862834885291       -0.72232031941757       -0.05333925428680
C           -3.86346996107922       -2.03109032559604       -0.08033393097793
O           -4.47005257386359       -3.07444449523820       -0.11202335338317
O           -2.49254522353283       -2.09008192162915       -0.06799976511572
C           -1.72329874876491       -0.97891899504559       -0.03202254306120
C           -0.34761318332456       -1.17191586232257       -0.02160384550648
C            0.46316945686652       -0.05124054174439        0.02183161684636
C           -0.08758399251083        1.26031382606591        0.02632621421149
C           -1.45458801579688        1.43765144391115        0.01469477614898
C           -2.28406944652685        0.31621918355805       -0.00746877954601
C            1.02787860865897        2.16699912936338        0.03261301116149
C            1.13294071633421        3.55095962133163        0.05476330314083
C            2.39268296017069        4.11669622525252        0.07792680872165
C            3.53533480916012        3.32085599852363        0.09313639564097
C            3.45495741940990        1.94073029423574        0.07143515798618
C            2.19308513515818        1.36809143200230        0.02580166075157
N            1.83265261375930        0.03166909584794        0.01912494250740
C            2.72254357857349       -1.05637175402550        0.00964475081994
C            3.73873184542077       -1.11603253925972       -0.93837525539840
C            4.61617188438140       -2.18485557695253       -0.94053841362896
C            4.48142377324731       -3.20074515628327       -0.00894085293625
C            3.46636383497155       -3.14395921050552        0.93160675488019
C            2.58995205248714       -2.07450991327431        0.94807234642523
H           -5.77061216346381        2.92517085793329        0.02233739672036
H           -6.05695163269054        1.43364826396444       -0.91132952897041
H           -6.07664826894930        1.38873646614036        0.87307803649156
H           -5.54525956109105       -0.72387392552996       -0.06355818255592
H            0.04535857151272       -2.17455988468372       -0.05779560818056
H           -1.89602947182779        2.42071630499105        0.01889507764166
H            0.24637701407451        4.16629025992705        0.05794088231941
H            2.49783447011285        5.19104263488745        0.09329610126011
H            4.50653144208347        3.79168612851790        0.12614929791933
H            4.34564611331969        1.33181925386899        0.10012820039049
H            3.82633319322206       -0.33221314813481       -1.67583809389802
H            5.40333571482222       -2.22805343443777       -1.67842121167486
H            5.16563154704437       -4.03550531772310       -0.01646343894645
H            3.35959467008560       -3.93278232747908        1.66098458065988
H            1.80920369883820       -2.01606562426231        1.69131886754118
