41
 energy: -69.837045119795 gnorm: 0.000070220610 xtb: 6.7.1 (edcfbbe)
C           -5.61585205851114        1.86790127032413       -0.04542858307700
O           -4.21738852870462        1.72117821547009       -0.04265691154901
C           -3.69232652078220        0.46212590936415        0.00138565480941
C           -4.47949097741217       -0.72423907317430        0.04256321006541
C           -3.88645029282767       -2.00875150623369        0.10215634562809
O           -4.49175367288083       -3.06571768036123        0.14575716999633
O           -2.50167297271181       -2.07847641403131        0.11128855850925
C           -1.72923580680210       -0.96483509876867        0.05709772525307
C           -0.37090562324394       -1.16163177590344        0.05898091534398
C            0.46867952655590       -0.02320003138845       -0.00523938398593
C           -0.06396675032595        1.28483760758707       -0.01849770173984
C           -1.42593341195354        1.49051130208475       -0.01607663298120
C           -2.30298230104998        0.34490084191110        0.00718574214408
C            1.07054538453031        2.17555908968505       -0.02420936489265
C            1.20235235953795        3.55327700433112       -0.05703934388558
C            2.47602597003557        4.09807324234494       -0.08275729395397
C            3.60768081504639        3.28505834998932       -0.09537561995814
C            3.50201320812724        1.90602807350971       -0.06539491076143
C            2.22913467964452        1.35634413234759       -0.00744165724962
N            1.83906027469825        0.03142001414979        0.00373392320442
C            2.70048028750850       -1.06968275632760       -0.00855814121951
C            2.50107043946155       -2.10219262927741       -0.92405251282473
C            3.35373559401189       -3.18901115521702       -0.93092177871615
C            4.40867844536689       -3.25691339463008       -0.03431923540962
C            4.60796492432259       -2.23073322524031        0.87592974604946
C            3.76007139683435       -1.14008852692758        0.89473475569355
H           -6.06706726733627        1.45508065017792        0.86229138484934
H           -5.79616783520441        2.94139977679747       -0.07977952960993
H           -6.06939445733965        1.39780052624368       -0.92369045613463
H           -5.55487466072201       -0.69894171018689        0.03538043126747
H            0.02360793883908       -2.16151975702353        0.12657167858003
H           -1.86501218271729        2.47172428060829       -0.02307537127282
H            0.32841629038576        4.18578965066725       -0.06793611869215
H            2.59786391922596        5.17044001134126       -0.10571538923646
H            4.58595068512149        3.73942216842980       -0.13465868113839
H            4.38231129964435        1.28235006692981       -0.09868122568210
H            1.69361755065985       -2.03159974353347       -1.63673888797372
H            3.19773966016513       -3.98442429368334       -1.64375950356975
H            5.07253997167880       -4.10759108469292       -0.04374086422280
H            5.42332036096300       -2.28461219677969        1.58153365837647
H            3.89247975379919       -0.35379174401974        1.62252117294859
