34
 energy: -60.255233221859 gnorm: 0.000050604549 xtb: 6.7.1 (edcfbbe)
C           -2.72414290608482       -3.73615158388798       -0.10902835164428
C           -1.35267313715324       -3.64825972909279       -0.23562997917521
C           -0.72429023453621       -2.41249654809456       -0.22141414052906
C           -1.45656041127120       -1.24145001538135       -0.07269583510183
C           -2.85167239264190       -1.34035292847855        0.02030235638877
C           -3.47312525403060       -2.57562807828587        0.01099463882048
O           -3.66769495931692       -0.23997891433467        0.10254014620456
C           -3.06694312182851        0.99217610358143        0.14030551562646
C           -3.89548533975392        2.09160817394563        0.26843806407384
C           -3.35816129808502        3.36788997217298        0.34514822587647
C           -1.98808904865011        3.53215128329179        0.31655270835535
C           -1.15292080167497        2.43283372832152        0.18845109450685
C           -1.67670035651229        1.15121231742630        0.07004653776197
N           -0.86095013816956        0.02450277968888       -0.06504639519069
C            0.52979534137030        0.17964615151596       -0.22266821269554
C            1.00020802130724        0.89825618382674       -1.35403575011987
C            2.33063035757221        1.08106188008796       -1.59072743469369
C            3.24920675441191        0.53673864549366       -0.67526462484218
N            4.57920625650291        0.60241199000513       -0.71372652413606
S            5.16859262979562       -0.17733264372514        0.56321285875993
N            3.78019220631466       -0.64139482197825        1.22907918797147
C            2.77579184244877       -0.19674139451189        0.47075034191048
C            1.40151122893177       -0.36371483791307        0.69061132896418
H           -3.21723018041709       -4.69525543734251       -0.11313957568085
H           -0.75604429803687       -4.54016056285450       -0.34903066371220
H            0.34665123645496       -2.36158991062350       -0.33740811022215
H           -4.54797835194692       -2.60521689209308        0.09129401679158
H           -4.96010159475950        1.92609710897421        0.31026037817031
H           -4.01228471418884        4.22003405686621        0.44038733367111
H           -1.55386852745848        4.51651953998457        0.39914269044304
H           -0.08331409627517        2.57380339062408        0.18747123631042
H            0.26710622107756        1.28932338900684       -2.04411744763736
H            2.68984622173993        1.61704451586596       -2.45418735312452
H            1.05310701840801       -0.90308059115798        1.55676596633331
