34
 energy: -60.253688215076 gnorm: 0.000019980635 xtb: 6.7.1 (edcfbbe)
C           -2.39106141397965       -3.57663042646579        0.04336310285328
C           -1.01297847043234       -3.61072028718900       -0.00731914200337
C           -0.28380895397322       -2.43036510409414       -0.02401540323005
C           -0.92869395131253       -1.20215223285460        0.01100107550874
C           -2.32893552360990       -1.17536619547431        0.06094415914277
C           -3.04878875615691       -2.35407561705313        0.07677060869896
O           -3.04080800002419       -0.00012191710897        0.09614132666854
C           -2.32901986751538        1.17517687167750        0.06104156746726
C           -3.04896299644322        2.35383090272135        0.07691358917195
C           -2.39132901379462        3.57643715697353        0.04356236091696
C           -1.01324876429568        3.61063362441697       -0.00712614073273
C           -0.28398962870706        2.43033459796496       -0.02386930726617
C           -0.92877933519843        1.20207117878658        0.01112305928001
N           -0.22600892337895       -0.00001524676271       -0.00110822547502
C            1.19116442705479        0.00002365236976       -0.06178122595783
C            1.81044039388469       -0.00035925600247       -1.33649524458011
C            3.16869503872477       -0.00031275899953       -1.47429791258906
C            3.95144035913771        0.00009958038562       -0.30684427422111
N            5.28241524299598        0.00016711038522       -0.21425888769979
S            5.68878213780374        0.00067645076990        1.33876223268739
N            4.21682949167826        0.00081836900407        1.97888614428470
C            3.32190595524220        0.00046887370266        0.98883224281714
C            1.92275935391570        0.00043736631678        1.09752823685934
H           -2.96272628260437       -4.49112275092050        0.05720626929693
H           -0.49012455196035       -4.55436959711597       -0.03406562290987
H            0.79451628675316       -2.46137748652658       -0.06310668084931
H           -4.12482133339183       -2.29696145124483        0.11615170409054
H           -4.12499212339174        2.29663132350197        0.11627084724586
H           -2.96306343343456        4.49088568378185        0.05742851442800
H           -0.49046803423288        4.55432402799176       -0.03385951172018
H            0.79433169824871        2.46142936171925       -0.06299851396899
H            1.17179602511417       -0.00065900228796       -2.20726199526429
H            3.64797531168795       -0.00057557259894       -2.43974491948446
H            1.44955763561350        0.00074077023323        2.06622796653049
