34
 energy: -60.189011156495 gnorm: 0.000025808703 xtb: 6.7.1 (edcfbbe)
C           -3.52134440095636       -3.25905751024714       -0.41433764971099
C           -2.16239674649861       -3.50139166363886       -0.28760189911321
C           -1.27759386836095       -2.45759694160777       -0.09980788621967
C           -1.73304861470073       -1.14085639183492       -0.02275121571653
C           -3.10689968619612       -0.90374115692787       -0.20649193088331
C           -3.98915058473143       -1.95805037872907       -0.38767671470609
O           -3.63121249596562        0.35415839105052       -0.24647515644800
C           -2.77920397715391        1.40415146245840       -0.07110307659695
C           -3.32857688905158        2.67636716296679       -0.09919253522663
C           -2.52624673045902        3.78329769901720        0.11416960102112
C           -1.17895101454793        3.61272482732120        0.39013416265996
C           -0.62364007108827        2.34798964561669        0.42332501957826
C           -1.40353483918655        1.22177954427497        0.15381271857208
N           -0.87322805425926       -0.06310894085219        0.16137153097091
C            0.50676064685020       -0.24748100160725        0.32930552741436
C            0.99666272698537       -1.06396948322012        1.33816697284247
C            2.36107420899368       -1.25414756765418        1.50922528665243
C            3.25631584360201       -0.64391988706206        0.61404121445586
N            4.56900579079708       -0.76788684440728        0.59741681423235
S            5.16200291181550        0.18557114148377       -0.65244248089242
N            3.72012053048325        0.73084632528797       -1.20307434088963
C            2.74513287344021        0.21140406437136       -0.43944268373074
C            1.38702900036070        0.41119674802441       -0.58066170397986
H           -4.21217538030082       -4.07542692780736       -0.55133969287937
H           -1.78425602356777       -4.51010931413684       -0.34039010294215
H           -0.22086570437660       -2.65612151342395       -0.02569004821876
H           -5.03518973020702       -1.73026236152997       -0.51449593648621
H           -4.38644895588320        2.77151838553429       -0.28342513841310
H           -2.95786342215398        4.77102069503250        0.08750748371942
H           -0.55418357573785        4.46820798915369        0.59234946889205
H            0.41995873240977        2.22503960738786        0.66328006244736
H            0.30404968861785       -1.51990950416572        2.03070919239170
H            2.74290039403125       -1.83267114256307        2.33384401500926
H            0.99256977638398        0.97414116425823       -1.41113111365794
