34
 energy: -60.189010972606 gnorm: 0.000046718320 xtb: 6.7.1 (edcfbbe)
C           -2.65732074957862       -3.71957614337653       -0.02424555457659
C           -1.30452489735288       -3.60082220050242       -0.30047722035562
C           -0.70660479576343       -2.35664626532060       -0.35997395633507
C           -1.44837889784064       -1.19903601701374       -0.11723879715623
C           -2.82981223973001       -1.32973820348346        0.10832778316870
C           -3.42203329720149       -2.58170802119500        0.16289872622843
O           -3.64603768285005       -0.24791054130896        0.25866270576665
C           -3.07923758042816        0.99033310734516        0.19298383800806
C           -3.92536403337274        2.07764976627292        0.34973383296200
C           -3.41359996317527        3.36228291683728        0.34952653231439
C           -2.04703883201255        3.55556450425100        0.22033289302632
C           -1.19799707015066        2.47853157622727        0.05671858545355
C           -1.69787869119973        1.17667492602644        0.00709180281181
N           -0.87488779868632        0.06669083385015       -0.15189629867931
C            0.51071499001065        0.20069998011990       -0.32154958224516
C            1.02867303596867        0.97720379752075       -1.34779376628922
C            2.39887560389899        1.11741616964009       -1.52088949972061
C            3.27223253782054        0.49803546527245       -0.61052609568311
N            4.58835963706512        0.57818780897739       -0.59452389375031
S            5.14784494752879       -0.36565256843666        0.67780736773173
N            3.68789178606849       -0.84952340641879        1.23835574960477
C            2.73164252225884       -0.31530292590068        0.46134963223960
C            1.36745116305338       -0.46628965673128        0.60463844038352
H           -3.12222339222887       -4.69129610413601        0.02292332799648
H           -0.70876300045471       -4.48120490145622       -0.48234089447881
H            0.34099209126117       -2.27437491015926       -0.59991363444081
H           -4.48283327240395       -2.63694002473312        0.34657836502468
H           -4.97871962986029        1.88832656491199        0.47921758991533
H           -4.07644391580198        4.20439579325325        0.46769053267421
H           -1.63489514086691        4.55176009112638        0.25228826815002
H           -0.13503185289264        2.63936370503712       -0.01961637685281
H            0.35237496033321        1.44042455615772       -2.05153930627595
H            2.80071302923803        1.66379054134646       -2.35783331414335
H            0.95347067767625       -0.99669311910192        1.44694160381330
