  64
        -98.57626920
 C          6.4990001599       -3.6210470410        1.3272459312
 C          5.1304777060       -3.3907285299        1.4635208709
 C          4.5593238923       -2.1943315112        1.0579584050
 C          5.3866628124       -1.2329074923        0.5022869176
 C          6.7871308127       -1.4435898454        0.3972416598
 C          7.3366118403       -2.6550130767        0.8064122665
 C          7.3447467996       -0.2411155639       -0.1370028076
 C          8.6378751126        0.1470663956       -0.4743875684
 C          8.8321422317        1.3964287444       -1.0287048470
 C          7.7580541736        2.2524486679       -1.2694068612
 C          6.4622111464        1.8911219801       -0.9347830390
 C          6.2622846055        0.6551341963       -0.3429483573
 N          5.0824699597        0.0433362870        0.0529625578
 C          3.8215005811        0.6046243064        0.0144743902
 C          2.7147966150       -0.1367931718       -0.4578452044
 C          1.4634590181        0.4065924860       -0.4885137460
 C          1.2373103826        1.7259565416       -0.0245220320
 N          0.0008851105        2.3114007154       -0.0170186374
 C         -1.2356649082        1.7264293481       -0.0071682383
 C         -2.3572249455        2.4878927704       -0.4209514046
 C         -3.6094932241        1.9472558789       -0.4357625548
 C         -3.8216143774        0.6089088380       -0.0325124648
 N         -5.0838354720        0.0494087526       -0.0606818756
 C         -5.3924680699       -1.2258328555       -0.5095655955
 C         -4.5718679936       -2.1824820866       -1.0831623664
 C         -5.1463588869       -3.3788127409       -1.4838779095
 C         -6.5116410173       -3.6137094012       -1.3250131971
 C         -7.3431267008       -2.6521754129       -0.7862629697
 C         -6.7904092493       -1.4403892402       -0.3824748446
 C         -7.3420693870       -0.2407479045        0.1641907563
 C         -8.6306060805        0.1433822538        0.5230847772
 C         -8.8192727172        1.3913342280        1.0825257303
 C         -7.7436774781        2.2498907881        1.3071394086
 C         -6.4523236937        1.8923491008        0.9515989049
 C         -6.2585889359        0.6575917457        0.3552625830
 C         -2.7122561802       -0.1368617903        0.4264605448
 C         -1.4600011505        0.4046818715        0.4508692332
 C          2.3570736443        2.4843727050        0.3997322841
 C          3.6082371530        1.9417091167        0.4217462760
 H          6.9076784854       -4.5676217287        1.6488363413
 H          4.5039259459       -4.1551131079        1.8974440936
 H          3.5029722717       -2.0186802737        1.1926015400
 H          8.3987668685       -2.8275864879        0.7221484298
 H          9.4679052475       -0.5230800291       -0.3105772477
 H          9.8289750929        1.7148369960       -1.2962878271
 H          7.9366845494        3.2118268749       -1.7306892748
 H          5.6370825151        2.5514538130       -1.1532147950
 H          2.8851626710       -1.1241789373       -0.8588325393
 H          0.6457115430       -0.1428790520       -0.9270233192
 H          0.0010282867        3.3251341298       -0.0149621035
 H         -2.2014024106        3.5030453824       -0.7578218811
 H         -4.4449472237        2.5214803004       -0.8049776931
 H         -3.5185528636       -2.0027692906       -1.2350030831
 H         -4.5252719477       -4.1393469205       -1.9322505317
 H         -6.9229255142       -4.5603604226       -1.6430409755
 H         -8.4030753097       -2.8285114854       -0.6842671489
 H         -9.4614937054       -0.5289005511        0.3720218406
 H         -9.8125092924        1.7065807281        1.3669366947
 H         -7.9174080819        3.2082142207        1.7722770082
 H         -5.6255441191        2.5548814697        1.1572275987
 H         -2.8809687766       -1.1262328332        0.8231949989
 H         -0.6397792672       -0.1484471700        0.8800167576
 H          2.2002059708        3.4982250823        0.7400012395
 H          4.4416702067        2.5130715945        0.7996454229
