  44
  -70.0062451289000       0.425853131814282      !
 C          6.4275062482        0.8325033136       -1.0566265681
 C          6.0229914358       -0.0777238349       -2.0215884015
 C          4.8465182369       -0.7820020099       -1.8550138761
 C          4.0718715284       -0.5975155991       -0.7158058069
 C          4.4771608238        0.3145640862        0.2504160040
 C          5.6532469876        1.0329293962        0.0695621121
 S          3.5812960918        0.5899371350        1.7549895040
 C          1.9067583512        0.4321533242        1.2203891455
 C          0.9513545683        1.2421512237        1.8326596372
 C         -0.3765395197        1.1435757833        1.4921792490
 C         -0.8089972585        0.2231322722        0.5206989857
 C         -2.2059168449        0.1012409448        0.1631532749
 C         -2.8289430286       -1.1922871033        0.1425235003
 C         -2.1782492618       -2.3502874763        0.5696020553
 C         -2.8039109096       -3.5975162299        0.5249246743
 C         -4.1034933492       -3.7090155788        0.0768488639
 C         -4.8018444554       -2.5642693681       -0.2916740346
 C         -4.1982946645       -1.3017438366       -0.2473609015
 C         -4.9317752351       -0.1363078355       -0.5371439346
 C         -4.3498668929        1.1439751761       -0.4873740969
 C         -5.0963638875        2.2890957359       -0.7894737527
 C         -4.5027359708        3.5463236316       -0.8255303003
 C         -3.1490360737        3.6658259659       -0.5909558146
 C         -2.3850767831        2.5387093674       -0.2818185113
 C         -2.9634798449        1.2738624971       -0.1707541419
 C          0.1629694780       -0.5804866192       -0.0900373653
 C          1.4964728880       -0.4837100439        0.2546855132
 S          2.6201668040       -1.5980824241       -0.5470873564
 H          7.3442742777        1.3875123516       -1.1811929350
 H          6.6221826245       -0.2386066328       -2.9042994681
 H          4.5167001969       -1.4949341818       -2.5951122374
 H          5.9527654614        1.7370663836        0.8306652987
 H          1.2747873967        1.9373630510        2.5925470669
 H         -1.1071018592        1.7456443946        2.0101272593
 H         -1.1742937268       -2.2903617847        0.9595496967
 H         -2.2593002584       -4.4725298137        0.8466212402
 H         -4.5866320001       -4.6734772954        0.0301770388
 H         -5.8318300220       -2.6376239758       -0.6092032967
 H         -5.9738273486       -0.2273120785       -0.8069191859
 H         -6.1495659518        2.1818673803       -1.0043830109
 H         -5.0986604211        4.4170637538       -1.0542485565
 H         -2.6676758832        4.6307373162       -0.6468438127
 H         -1.3216943807        2.6567292187       -0.1429647761
 H         -0.1243827891       -1.2720392247       -0.8668746172
  44
  -70.0059189782000       0.301558352338375      !
 C          6.3875816324        1.5884533178       -0.0862725983
 C          5.9348174368        1.8777212485       -1.3647695641
 C          4.7607153693        1.3136984906       -1.8248295123
 C          4.0361420063        0.4422950992       -1.0201391429
 C          4.4903349072        0.1529431478        0.2604350840
 C          5.6634632613        0.7359593461        0.7243752949
 S          3.6655956942       -0.9814771446        1.3445409384
 C          1.9670897625       -0.6937463184        0.9674928980
 C          1.0429287381       -0.8297621149        2.0033313420
 C         -0.3027169101       -0.6807478484        1.7700201087
 C         -0.7840494303       -0.3526760677        0.4894733998
 C         -2.1984878842       -0.1748410738        0.2385300347
 C         -3.1286795991       -1.1801310702        0.6672223133
 C         -2.7212446874       -2.3983400238        1.2121785681
 C         -3.6471591663       -3.3565423313        1.6295748308
 C         -4.9992382678       -3.1282388358        1.4829074808
 C         -5.4351605534       -1.9510200807        0.8837543759
 C         -4.5257642306       -0.9779802472        0.4525616474
 C         -4.9617902896        0.1724046243       -0.2305220470
 C         -4.0630485535        1.1517459392       -0.6927671399
 C         -4.5208656194        2.2923340530       -1.3630616849
 C         -3.6441711374        3.3002086084       -1.7503548078
 C         -2.3044261409        3.1911223354       -1.4421754740
 C         -1.8236099464        2.0607538482       -0.7785823649
 C         -2.6662896493        1.0030638376       -0.4348664488
 C          0.1569940884       -0.1991584845       -0.5369371673
 C          1.5062088076       -0.3862379250       -0.3111258561
 S          2.5834901720       -0.2923499322       -1.7191649600
 H          7.3026501417        2.0270195547        0.2802186343
 H          6.4945733943        2.5429183717       -2.0037397979
 H          4.3945366848        1.5266098219       -2.8174794152
 H          6.0005674830        0.4994871493        1.7219796251
 H          1.4079172014       -1.0588172949        2.9929546622
 H         -0.9999448983       -0.7643927539        2.5893334394
 H         -1.6694952071       -2.6226882025        1.2989999339
 H         -3.2924951030       -4.2797879601        2.0628307793
 H         -5.7183724693       -3.8633244829        1.8118021707
 H         -6.4911128897       -1.7787671440        0.7346484552
 H         -6.0187136845        0.3063672147       -0.4085947684
 H         -5.5769414676        2.3848229157       -1.5705988047
 H         -4.0179485842        4.1678197500       -2.2731260202
 H         -1.6160753953        3.9790529352       -1.7092120344
 H         -0.7780124226        2.0215684039       -0.5160068997
 H         -0.1768047410        0.0053633519       -1.5425366771
  44
  -70.0058235325000       0.272588515847343      !
 C          6.3291799264        0.8275218503       -1.1910797335
 C          5.9105550424       -0.1336048691       -2.0990586370
 C          4.7588426961       -0.8560715183       -1.8559214514
 C          4.0257152613       -0.6384896792       -0.6956736842
 C          4.4477103865        0.3203388356        0.2166527710
 C          5.5970865945        1.0574886871       -0.0422996412
 S          3.6055013730        0.6308504018        1.7466601602
 C          1.9158570346        0.4505948479        1.2692603860
 C          0.9696911826        1.2721834864        1.8798411662
 C         -0.3632448200        1.1711346215        1.5579397148
 C         -0.8090599891        0.2429389642        0.5994345199
 C         -2.1997107760        0.1254522361        0.2217201773
 C         -2.8061164152       -1.1757693550        0.1615387804
 C         -2.1739298981       -2.3228754360        0.6418366987
 C         -2.7657470521       -3.5822918846        0.5301916740
 C         -4.0152367236       -3.7159123774       -0.0386124192
 C         -4.7053756529       -2.5815943391       -0.4514875009
 C         -4.1371859652       -1.3069315754       -0.3367064289
 C         -4.8687136353       -0.1503187664       -0.6621389897
 C         -4.3177593621        1.1395185101       -0.5446856793
 C         -5.0676272483        2.2742720568       -0.8762575842
 C         -4.5010975359        3.5440001271       -0.8528228947
 C         -3.1678682473        3.6864641188       -0.5302625545
 C         -2.4010360745        2.5699680302       -0.1915581467
 C         -2.9571348478        1.2914367985       -0.1366660118
 C          0.1535305983       -0.5843234788        0.0030645370
 C          1.4886470063       -0.4921989323        0.3368226916
 S          2.5952006191       -1.6475218654       -0.4300954470
 H          7.2248328274        1.3992928193       -1.3777938933
 H          6.4783424881       -0.3189540082       -2.9975799210
 H          4.4166468678       -1.6075796272       -2.5508457615
 H          5.9105280057        1.7997256820        0.6757672781
 H          1.3038819304        1.9798907454        2.6235207873
 H         -1.0854197248        1.7783581907        2.0815254174
 H         -1.2113491641       -2.2448799560        1.1229427574
 H         -2.2330620426       -4.4491901963        0.8914157574
 H         -4.4673114613       -4.6905268338       -0.1454371751
 H         -5.7002055408       -2.6728599365       -0.8623378090
 H         -5.8866394532       -0.2546420047       -1.0081735693
 H         -6.1014283181        2.1484595364       -1.1632549130
 H         -5.1001141440        4.4062551747       -1.1045421559
 H         -2.7042758045        4.6616482021       -0.5406037588
 H         -1.3506567111        2.7084275603        0.0114053206
 H         -0.1449161601       -1.2919752402       -0.7546094487
