  58
        -91.74111185
 C          7.8041773573       -1.6989960414       -0.4488143601
 C          7.4874886856       -0.4578142043        0.0835277291
 C          6.1725392978       -0.0614433292        0.2099518654
 C          5.1281262796       -0.9053611214       -0.1894248082
 C          3.7281572430       -0.5531040970       -0.0755331446
 C          3.2629362031        0.6576560481        0.4274816518
 C          1.9105357818        0.9841261004        0.3984960908
 C          1.4859507741        2.3350932626        0.7372550932
 C          0.5235051405        3.0132450443       -0.0197240992
 C          0.1337851882        4.2945043357        0.3118357870
 C          0.6966456516        4.9383228057        1.4033929586
 C          1.6652211642        4.2870256235        2.1523661349
 C          2.0606593265        3.0070337649        1.8230722449
 C          0.9775486497       -0.0123067810       -0.0451113211
 C         -0.3969668858        0.1006888534        0.0582240454
 C         -1.2547880068       -0.9248916803       -0.3895816971
 N         -2.6467341796       -0.7491424129       -0.2843572947
 C         -3.2511807537        0.3447263537       -0.8898321867
 C         -2.5470014685        1.2101114744       -1.7267317458
 C         -3.1704317279        2.3051138249       -2.2949666716
 C         -4.5134590384        2.5484595081       -2.0604285308
 C         -5.2433484480        1.6711083788       -1.2762771449
 C         -4.6248254639        0.5729185791       -0.7016645289
 O         -5.4070663702       -0.2752177737        0.0279973819
 C         -4.8112179675       -1.3734451893        0.5805682741
 C         -5.6230075704       -2.2317693513        1.3040252895
 C         -5.0796475917       -3.3393108001        1.9315186604
 C         -3.7163684103       -3.5707630101        1.8528724482
 C         -2.8999892584       -2.7213978975        1.1297317373
 C         -3.4332193689       -1.6229114019        0.4566089705
 C         -0.7156724157       -2.0903675899       -0.9223913934
 C          0.6506591644       -2.2563348953       -0.9791165970
 C          1.5360270761       -1.2529944092       -0.5172143591
 N          2.8308353728       -1.4771238442       -0.4937920052
 C          5.4669889082       -2.1571858709       -0.7270595902
 C          6.7820299330       -2.5450591892       -0.8546612551
 H          8.8360605444       -2.0018635315       -0.5464206753
 H          8.2782761070        0.2079418311        0.3997208651
 H          5.9601925569        0.9138604780        0.6204602100
 H          3.9694102414        1.3977387340        0.7658770177
 H          0.1105058802        2.5412349896       -0.8983212205
 H         -0.6088223934        4.7999621020       -0.2893860006
 H          0.3894671069        5.9402691188        1.6632387357
 H          2.1110980228        4.7825409804        3.0031084100
 H          2.7988946001        2.5011188763        2.4280607451
 H         -0.8288282668        0.9545550843        0.5590550440
 H         -1.5096439662        1.0081138169       -1.9373282008
 H         -2.6020596470        2.9651243891       -2.9316434901
 H         -4.9991818657        3.4043070320       -2.5011522175
 H         -6.2972973654        1.8140525462       -1.1003837886
 H         -6.6752323395       -2.0056545629        1.3672932681
 H         -5.7167484411       -4.0061882050        2.4900140379
 H         -3.2791105132       -4.4154785749        2.3615724471
 H         -1.8373795349       -2.8977462007        1.0931017150
 H         -1.3735620438       -2.8560201976       -1.3069455935
 H          1.0781367801       -3.1433682262       -1.4171215518
 H          4.6639389659       -2.8113084667       -1.0304866408
 H          7.0189798910       -3.5144280358       -1.2697553681
  58
        -91.73878073
 C          7.7963177196       -1.5694903468       -0.8034606361
 C          7.4835995151       -0.2866928117       -0.3768882471
 C          6.1723517964        0.0858330389       -0.1698622271
 C          5.1261096247       -0.8222577781       -0.3842539381
 C          3.7318088287       -0.4947757356       -0.1892052414
 C          3.2716406944        0.7300970349        0.2900688112
 C          1.9177943806        0.9798573417        0.4741351202
 C          1.4936813136        2.2395802733        1.0755974857
 C          0.5283547456        2.2759229701        2.0872361118
 C          0.1539905683        3.4727654428        2.6638080217
 C          0.7315926813        4.6631856835        2.2485303475
 C          1.7005134291        4.6408460203        1.2573116856
 C          2.0815367202        3.4460322623        0.6809294217
 C          0.9775812031       -0.0325795531        0.0844681699
 C         -0.3977258629        0.1397212296        0.0553080340
 C         -1.2506558073       -0.9131697551       -0.3155416483
 N         -2.6478617524       -0.7008087088       -0.3169862469
 C         -3.2093688979        0.2469741844       -1.1595151330
 C         -2.4440504611        0.9841073818       -2.0632546499
 C         -3.0375730331        1.9239869069       -2.8847230055
 C         -4.4051913798        2.1398148238       -2.8352285052
 C         -5.1872680250        1.3931376337       -1.9708163857
 C         -4.6008454675        0.4495908559       -1.1432116216
 O         -5.4309575507       -0.2768074704       -0.3385047876
 C         -4.8665969304       -1.2133894761        0.4791383829
 C         -5.7197867981       -1.9390037022        1.2944179884
 C         -5.2087614888       -2.8788730066        2.1727320686
 C         -3.8389849170       -3.0754726115        2.2478433907
 C         -2.9810914569       -2.3592324793        1.4350782074
 C         -3.4777960432       -1.4325402197        0.5183792274
 C         -0.7231992398       -2.1493044441       -0.6701186803
 C          0.6422303893       -2.3293913321       -0.7088423821
 C          1.5281182254       -1.2811345370       -0.3669348364
 N          2.8277415068       -1.4585252502       -0.4834360298
 C          5.4614775117       -2.1161374377       -0.8176293164
 C          6.7726181769       -2.4809491336       -1.0226331998
 H          8.8255436716       -1.8541665049       -0.9635250939
 H          8.2752548114        0.4293693724       -0.2053301166
 H          5.9622511711        1.0925287928        0.1591256767
 H          3.9838767962        1.4874418647        0.5749617917
 H          0.1012636672        1.3504396252        2.4459309797
 H         -0.5876170012        3.4793361432        3.4502513097
 H          0.4347290787        5.5984865938        2.6991903452
 H          2.1592990511        5.5635691501        0.9314979735
 H          2.8243202513        3.4398919973       -0.1037139802
 H         -0.8287467202        1.0890476937        0.3351567345
 H         -1.3820825137        0.8095495130       -2.1209207838
 H         -2.4242610809        2.4849975929       -3.5722159838
 H         -4.8660956913        2.8746028934       -3.4757687436
 H         -6.2568629134        1.5198552760       -1.9240621365
 H         -6.7782084445       -1.7452281664        1.2268099100
 H         -5.8774095747       -3.4432143611        2.8027723254
 H         -3.4311059844       -3.7885833712        2.9470392677
 H         -1.9155192266       -2.5059040222        1.5089993247
 H         -1.3875255198       -2.9538000459       -0.9509315152
 H          1.0658372455       -3.2690230283       -1.0237728532
 H          4.6572151981       -2.8162691134       -0.9849120702
 H          7.0066266889       -3.4824580496       -1.3555488758
  58
        -91.73868986
 C          7.7999469437       -1.6481546900       -0.6374260873
 C          7.4918693302       -0.3585850673       -0.2276989520
 C          6.1800268426        0.0357052961       -0.0723467233
 C          5.1281299085       -0.8570859703       -0.3220292799
 C          3.7334710978       -0.5094627238       -0.1727256712
 C          3.2744493044        0.7229530989        0.2881844204
 C          1.9201724909        0.9901116395        0.4363589366
 C          1.5024187120        2.2793653252        0.9802222647
 C          0.5404579768        2.3730548891        1.9903507006
 C          0.1763812825        3.6006113803        2.5064475145
 C          0.7618017558        4.7639813435        2.0308841532
 C          1.7290196825        4.6847480731        1.0411507822
 C          2.0988539092        3.4593538839        0.5247888284
 C          0.9762780065       -0.0192079308        0.0471643144
 C         -0.3995565665        0.1501869330        0.0318152399
 C         -1.2548154981       -0.8964429094       -0.3545316443
 N         -2.6525200836       -0.6977924802       -0.3218190847
 C         -3.2419743268        0.2933115051       -1.0928061377
 C         -2.5044067176        1.0988864328       -1.9608841444
 C         -3.1250367918        2.0860245676       -2.7032056583
 C         -4.4934363756        2.2817075824       -2.6115388284
 C         -5.2494564848        1.4656131027       -1.7876289785
 C         -4.6356185043        0.4748944750       -1.0388432703
 O         -5.4425253519       -0.3178067283       -0.2743309829
 C         -4.8509773070       -1.2910911728        0.4781445179
 C         -5.6807837959       -2.0775946095        1.2605910754
 C         -5.1423036680       -3.0557687974        2.0785036842
 C         -3.7681909384       -3.2279252122        2.1288448495
 C         -2.9338562093       -2.4514212092        1.3476292500
 C         -3.4582080804       -1.4872260691        0.4863246256
 C         -0.7264555515       -2.1218035555       -0.7446266706
 C          0.6381729738       -2.3041256816       -0.7802819989
 C          1.5256952255       -1.2679892081       -0.4061670397
 N          2.8251542113       -1.4624152251       -0.4888586778
 C          5.4589061371       -2.1574791257       -0.7394721037
 C          6.7708554458       -2.5439358555       -0.8932741060
 H          8.8299359044       -1.9498723880       -0.7562664541
 H          8.2879087924        0.3453035453       -0.0286566162
 H          5.9734652475        1.0470111218        0.2436548988
 H          3.9871432479        1.4772917670        0.5801537368
 H          0.1082589423        1.4704021263        2.3974039933
 H         -0.5638597365        3.6526042476        3.2924202986
 H          0.4721455312        5.7229919720        2.4337721118
 H          2.1944050218        5.5860870503        0.6684921743
 H          2.8409478758        3.4070134425       -0.2588858258
 H         -0.8312346158        1.0894331264        0.3416904838
 H         -1.4423228546        0.9413111659       -2.0536634030
 H         -2.5320440084        2.7010167074       -3.3618274440
 H         -4.9753536238        3.0542870450       -3.1889281047
 H         -6.3194972900        1.5735899847       -1.7123310667
 H         -6.7432163293       -1.8997803001        1.2162855703
 H         -5.7926516161       -3.6682049975        2.6822407128
 H         -3.3379543263       -3.9698670714        2.7831798180
 H         -1.8650990633       -2.5810518175        1.4049930326
 H         -1.3905893310       -2.9177128690       -1.0492436903
 H          1.0614470005       -3.2359178850       -1.1179015917
 H          4.6505738090       -2.8460152465       -0.9331015608
 H          7.0014082282       -3.5502860234       -1.2131993846
  58
        -91.73856354
 C          7.8055591802       -1.6634918245       -0.5709149789
 C          7.4946315838       -0.3816131049       -0.1397027331
 C          6.1816286213        0.0151752719       -0.0019926618
 C          5.1310982959       -0.8673834705       -0.2912841819
 C          3.7355599013       -0.5177047582       -0.1591971185
 C          3.2723878086        0.7167981937        0.2927478588
 C          1.9172644198        0.9866040090        0.4222786314
 C          1.4940120323        2.2900766306        0.9293856734
 C          0.5345653017        2.4103177173        1.9385529093
 C          0.1625148356        3.6522507430        2.4135204606
 C          0.7376320674        4.8028434722        1.8964645786
 C          1.7039645373        4.6972227287        0.9083960052
 C          2.0816553100        3.4575224515        0.4332384168
 C          0.9758817234       -0.0257768073        0.0352958059
 C         -0.4003820626        0.1370738487        0.0268557589
 C         -1.2537329218       -0.9086310030       -0.3686325800
 N         -2.6508185479       -0.7134638966       -0.3257241000
 C         -3.2408462047        0.3085767371       -1.0552571852
 C         -2.5081029920        1.1310575017       -1.9118083635
 C         -3.1271236127        2.1529692774       -2.6068167727
 C         -4.4898032386        2.3675905979       -2.4795579494
 C         -5.2427522188        1.5340594093       -1.6703637185
 C         -4.6303709435        0.5079883074       -0.9695016481
 O         -5.4350318549       -0.3000284517       -0.2191262334
 C         -4.8445025261       -1.3083021787        0.4865702217
 C         -5.6732606113       -2.1123175760        1.2521402451
 C         -5.1363377493       -3.1259219299        2.0264669345
 C         -3.7639071537       -3.3152014329        2.0518317793
 C         -2.9307359649       -2.5208641897        1.2874452732
 C         -3.4543430443       -1.5212994666        0.4670835380
 C         -0.7208052826       -2.1265465720       -0.7755166865
 C          0.6443583797       -2.3060797076       -0.8068870597
 C          1.5294648348       -1.2730693512       -0.4178796897
 N          2.8293135246       -1.4698767314       -0.4846779154
 C          5.4648928787       -2.1604553149       -0.7289013682
 C          6.7780508659       -2.5491345923       -0.8656473809
 H          8.8364255238       -1.9673793928       -0.6754048972
 H          8.2893972312        0.3141169677        0.0901727070
 H          5.9731078084        1.0198008017        0.3328204728
 H          3.9818344541        1.4742797049        0.5846221541
 H          0.1101646690        1.5186700891        2.3771410028
 H         -0.5764203410        3.7256328883        3.1990352731
 H          0.4407709160        5.7729824080        2.2662439679
 H          2.1618431880        5.5888496868        0.5041984861
 H          2.8225334518        3.3830581117       -0.3498415959
 H         -0.8357226098        1.0694194403        0.3517099411
 H         -1.4510895312        0.9595642930       -2.0330785850
 H         -2.5374716378        2.7805841718       -3.2564715383
 H         -4.9702232110        3.1680310270       -3.0191230799
 H         -6.3092651389        1.6555383881       -1.5700192407
 H         -6.7337368258       -1.9192720348        1.2298349359
 H         -5.7859949875       -3.7520186214        2.6168065923
 H         -3.3337367205       -4.0846065283        2.6737025671
 H         -1.8631348583       -2.6643135277        1.3276279137
 H         -1.3814863064       -2.9195257124       -1.0948550166
 H          1.0704313117       -3.2326411785       -1.1553063895
 H          4.6577846623       -2.8417028351       -0.9512415907
 H          7.0108338143       -3.5497311012       -1.2016661792
