  58
  -91.7411118500000       0.289757685327241      !
 C          7.8041773573       -1.6989960414       -0.4488143601
 C          7.4874886856       -0.4578142043        0.0835277291
 C          6.1725392978       -0.0614433292        0.2099518654
 C          5.1281262796       -0.9053611214       -0.1894248082
 C          3.7281572430       -0.5531040970       -0.0755331446
 C          3.2629362031        0.6576560481        0.4274816518
 C          1.9105357818        0.9841261004        0.3984960908
 C          1.4859507741        2.3350932626        0.7372550932
 C          0.5235051405        3.0132450443       -0.0197240992
 C          0.1337851882        4.2945043357        0.3118357870
 C          0.6966456516        4.9383228057        1.4033929586
 C          1.6652211642        4.2870256235        2.1523661349
 C          2.0606593265        3.0070337649        1.8230722449
 C          0.9775486497       -0.0123067810       -0.0451113211
 C         -0.3969668858        0.1006888534        0.0582240454
 C         -1.2547880068       -0.9248916803       -0.3895816971
 N         -2.6467341796       -0.7491424129       -0.2843572947
 C         -3.2511807537        0.3447263537       -0.8898321867
 C         -2.5470014685        1.2101114744       -1.7267317458
 C         -3.1704317279        2.3051138249       -2.2949666716
 C         -4.5134590384        2.5484595081       -2.0604285308
 C         -5.2433484480        1.6711083788       -1.2762771449
 C         -4.6248254639        0.5729185791       -0.7016645289
 O         -5.4070663702       -0.2752177737        0.0279973819
 C         -4.8112179675       -1.3734451893        0.5805682741
 C         -5.6230075704       -2.2317693513        1.3040252895
 C         -5.0796475917       -3.3393108001        1.9315186604
 C         -3.7163684103       -3.5707630101        1.8528724482
 C         -2.8999892584       -2.7213978975        1.1297317373
 C         -3.4332193689       -1.6229114019        0.4566089705
 C         -0.7156724157       -2.0903675899       -0.9223913934
 C          0.6506591644       -2.2563348953       -0.9791165970
 C          1.5360270761       -1.2529944092       -0.5172143591
 N          2.8308353728       -1.4771238442       -0.4937920052
 C          5.4669889082       -2.1571858709       -0.7270595902
 C          6.7820299330       -2.5450591892       -0.8546612551
 H          8.8360605444       -2.0018635315       -0.5464206753
 H          8.2782761070        0.2079418311        0.3997208651
 H          5.9601925569        0.9138604780        0.6204602100
 H          3.9694102414        1.3977387340        0.7658770177
 H          0.1105058802        2.5412349896       -0.8983212205
 H         -0.6088223934        4.7999621020       -0.2893860006
 H          0.3894671069        5.9402691188        1.6632387357
 H          2.1110980228        4.7825409804        3.0031084100
 H          2.7988946001        2.5011188763        2.4280607451
 H         -0.8288282668        0.9545550843        0.5590550440
 H         -1.5096439662        1.0081138169       -1.9373282008
 H         -2.6020596470        2.9651243891       -2.9316434901
 H         -4.9991818657        3.4043070320       -2.5011522175
 H         -6.2972973654        1.8140525462       -1.1003837886
 H         -6.6752323395       -2.0056545629        1.3672932681
 H         -5.7167484411       -4.0061882050        2.4900140379
 H         -3.2791105132       -4.4154785749        2.3615724471
 H         -1.8373795349       -2.8977462007        1.0931017150
 H         -1.3735620438       -2.8560201976       -1.3069455935
 H          1.0781367801       -3.1433682262       -1.4171215518
 H          4.6639389659       -2.8113084667       -1.0304866408
 H          7.0189798910       -3.5144280358       -1.2697553681
  58
  -91.7411066000000       0.288152393113137      !
 C          7.8061297223       -1.6686513551       -0.5287778663
 C          7.4921608608       -0.4200258673       -0.0125012543
 C          6.1773859809       -0.0342190482        0.1447173852
 C          5.1306309049       -0.8965090600       -0.2063065951
 C          3.7311007064       -0.5534127640       -0.0649446778
 C          3.2673023604        0.6576735346        0.4391636557
 C          1.9139159206        0.9799775345        0.4217016705
 C          1.4898699193        2.3310239462        0.7624440176
 C          2.0656410161        3.0004613364        1.8490034972
 C          1.6700641660        4.2796302740        2.1817098422
 C          0.7007609838        4.9323197426        1.4349966873
 C          0.1376964230        4.2912477587        0.3419319068
 C          0.5273617140        3.0107427327        0.0072087252
 C          0.9792687949       -0.0191013798       -0.0126717082
 C         -0.3952165689        0.0966807827        0.0887847605
 C         -1.2544324646       -0.9311566257       -0.3518028451
 N         -2.6464169098       -0.7476663061       -0.2643532954
 C         -3.2398392616        0.3393070715       -0.8933379732
 C         -2.5199871170        1.1995671537       -1.7221623149
 C         -3.1334044064        2.2880922494       -2.3133117235
 C         -4.4819975793        2.5293076484       -2.1114491513
 C         -5.2267738487        1.6559371198       -1.3369693917
 C         -4.6181101196        0.5648597386       -0.7387349280
 O         -5.4149783582       -0.2796037818       -0.0206194175
 C         -4.8288892237       -1.3706507978        0.5559695291
 C         -5.6548924847       -2.2258391067        1.2667824487
 C         -5.1227727050       -3.3255587228        1.9174001307
 C         -3.7569147426       -3.5513759744        1.8754486440
 C         -2.9263275967       -2.7052614815        1.1646820553
 C         -3.4473587328       -1.6160894677        0.4672908427
 C         -0.7163514019       -2.1058203892       -0.8653003799
 C          0.6496782711       -2.2749269191       -0.9175476610
 C          1.5362933933       -1.2642819055       -0.4742836650
 N          2.8317965495       -1.4851829103       -0.4609629312
 C          5.4667484611       -2.1561148870       -0.7274602664
 C          6.7814362386       -2.5333588835       -0.8862479600
 H          8.8377947266       -1.9627915489       -0.6519027576
 H          8.2848800832        0.2607656724        0.2644492049
 H          5.9668935630        0.9480669717        0.5391422945
 H          3.9747790309        1.4010139446        0.7683697544
 H          2.8048347540        2.4932262884        2.4517373201
 H          2.1175284537        4.7738025607        3.0323989998
 H          0.3939876862        5.9338827122        1.6968625084
 H         -0.6048325598        4.7982885678       -0.2580436618
 H          0.1139815386        2.5406920330       -0.8722247981
 H         -0.8263868015        0.9558667801        0.5809448953
 H         -1.4780137938        0.9985642162       -1.9092025704
 H         -2.5526432781        2.9439645818       -2.9430756882
 H         -4.9600860807        3.3800208575       -2.5701118770
 H         -6.2848557370        1.7970355799       -1.1860002385
 H         -6.7093983452       -2.0040731018        1.3017042292
 H         -5.7711285213       -3.9904194272        2.4652537625
 H         -3.3288412899       -4.3896208155        2.4025144314
 H         -1.8623218435       -2.8775137628        1.1557988509
 H         -1.3749272991       -2.8757534183       -1.2400758206
 H          1.0762262935       -3.1689558362       -1.3419717879
 H          4.6620146024       -2.8241164495       -0.9936114807
 H          7.0162895448       -3.5088234551       -1.2881387560
  58
  -91.7410999500000       0.286131783814147      !
 C          7.8111252456       -1.6587037138       -0.4975857243
 C          6.7935293830       -2.5140725336       -0.8956156011
 C          5.4757148398       -2.1418520436       -0.7501314563
 C          5.1294574813       -0.8965700210       -0.2020136165
 C          3.7277706819       -0.5567478620       -0.0737847940
 C          3.2595593340        0.6515857102        0.4324187118
 C          1.9062130312        0.9734042803        0.4090815789
 C          1.4803585058        2.3213686874        0.7579510933
 C          2.0589801155        2.9846630549        1.8470147840
 C          1.6642901782        4.2615099189        2.1887634329
 C          0.6916229496        4.9180613989        1.4498013921
 C          0.1247365792        4.2830157850        0.3552967564
 C          0.5144801468        3.0051657286        0.0105833811
 C          0.9753978680       -0.0248982087       -0.0348600034
 C         -0.3993945831        0.0881747365        0.0625026457
 C         -1.2556573647       -0.9397746032       -0.3826183896
 N         -2.6477411853       -0.7581254921       -0.2891840631
 C         -3.2420632172        0.3333534242       -0.9089079360
 C         -2.5284812678        1.1847492436       -1.7522691718
 C         -3.1420911942        2.2777316027       -2.3349956502
 C         -4.4842904623        2.5329597070       -2.1086894165
 C         -5.2233062021        1.6695324899       -1.3176507197
 C         -4.6147008301        0.5735568177       -0.7284284475
 O         -5.4054533010       -0.2601915800        0.0086771974
 C         -4.8186986539       -1.3540270389        0.5793273597
 C         -5.6378685010       -2.1942796969        1.3155472190
 C         -5.1039324778       -3.2966553454        1.9601557293
 C         -3.7427844366       -3.5414920839        1.8846689808
 C         -2.9189256467       -2.7097952408        1.1494295889
 C         -3.4425171230       -1.6162831812        0.4609668138
 C         -0.7146134464       -2.1106824827       -0.9010709556
 C          0.6521401702       -2.2760905203       -0.9525625805
 C          1.5362262046       -1.2668833143       -0.5008523287
 N          2.8320805908       -1.4866220447       -0.4823092757
 C          6.1693406572       -0.0439406744        0.1910991694
 C          7.4870676392       -0.4245439891        0.0467778425
 H          8.8450699300       -1.9490277894       -0.6104139231
 H          7.0364622488       -3.4775792750       -1.3206658724
 H          4.6765722416       -2.8027716901       -1.0489408444
 H          3.9645682840        1.3942411498        0.7680323963
 H          2.8003497349        2.4743957174        2.4444381325
 H          2.1142333898        4.7502682799        3.0412979411
 H          0.3843184324        5.9172314152        1.7198099811
 H         -0.6217408723        4.7924713605       -0.2376975239
 H          0.0970616360        2.5403770219       -0.8698816252
 H         -0.8337643329        0.9445386368        0.5566738022
 H         -1.4915987504        0.9736297084       -1.9564051156
 H         -2.5666676159        2.9267082345       -2.9766995555
 H         -4.9622421160        3.3873304639       -2.5606598972
 H         -6.2767803741        1.8221294751       -1.1469476232
 H         -6.6881695920       -1.9583546819        1.3754228912
 H         -5.7467734231       -3.9487146189        2.5294646764
 H         -3.3129425504       -4.3829409962        2.4051601069
 H         -1.8578380782       -2.8961681561        1.1149747519
 H         -1.3709089743       -2.8806760370       -1.2796924115
 H          1.0812117812       -3.1673123555       -1.3804494589
 H          5.9514836651        0.9265130149        0.6102022139
 H          8.2740706062        0.2481630135        0.3576898591
  58
  -91.7387807300000       2.458818018013972E-002 !
 C          7.7963177196       -1.5694903468       -0.8034606361
 C          7.4835995151       -0.2866928117       -0.3768882471
 C          6.1723517964        0.0858330389       -0.1698622271
 C          5.1261096247       -0.8222577781       -0.3842539381
 C          3.7318088287       -0.4947757356       -0.1892052414
 C          3.2716406944        0.7300970349        0.2900688112
 C          1.9177943806        0.9798573417        0.4741351202
 C          1.4936813136        2.2395802733        1.0755974857
 C          0.5283547456        2.2759229701        2.0872361118
 C          0.1539905683        3.4727654428        2.6638080217
 C          0.7315926813        4.6631856835        2.2485303475
 C          1.7005134291        4.6408460203        1.2573116856
 C          2.0815367202        3.4460322623        0.6809294217
 C          0.9775812031       -0.0325795531        0.0844681699
 C         -0.3977258629        0.1397212296        0.0553080340
 C         -1.2506558073       -0.9131697551       -0.3155416483
 N         -2.6478617524       -0.7008087088       -0.3169862469
 C         -3.2093688979        0.2469741844       -1.1595151330
 C         -2.4440504611        0.9841073818       -2.0632546499
 C         -3.0375730331        1.9239869069       -2.8847230055
 C         -4.4051913798        2.1398148238       -2.8352285052
 C         -5.1872680250        1.3931376337       -1.9708163857
 C         -4.6008454675        0.4495908559       -1.1432116216
 O         -5.4309575507       -0.2768074704       -0.3385047876
 C         -4.8665969304       -1.2133894761        0.4791383829
 C         -5.7197867981       -1.9390037022        1.2944179884
 C         -5.2087614888       -2.8788730066        2.1727320686
 C         -3.8389849170       -3.0754726115        2.2478433907
 C         -2.9810914569       -2.3592324793        1.4350782074
 C         -3.4777960432       -1.4325402197        0.5183792274
 C         -0.7231992398       -2.1493044441       -0.6701186803
 C          0.6422303893       -2.3293913321       -0.7088423821
 C          1.5281182254       -1.2811345370       -0.3669348364
 N          2.8277415068       -1.4585252502       -0.4834360298
 C          5.4614775117       -2.1161374377       -0.8176293164
 C          6.7726181769       -2.4809491336       -1.0226331998
 H          8.8255436716       -1.8541665049       -0.9635250939
 H          8.2752548114        0.4293693724       -0.2053301166
 H          5.9622511711        1.0925287928        0.1591256767
 H          3.9838767962        1.4874418647        0.5749617917
 H          0.1012636672        1.3504396252        2.4459309797
 H         -0.5876170012        3.4793361432        3.4502513097
 H          0.4347290787        5.5984865938        2.6991903452
 H          2.1592990511        5.5635691501        0.9314979735
 H          2.8243202513        3.4398919973       -0.1037139802
 H         -0.8287467202        1.0890476937        0.3351567345
 H         -1.3820825137        0.8095495130       -2.1209207838
 H         -2.4242610809        2.4849975929       -3.5722159838
 H         -4.8660956913        2.8746028934       -3.4757687436
 H         -6.2568629134        1.5198552760       -1.9240621365
 H         -6.7782084445       -1.7452281664        1.2268099100
 H         -5.8774095747       -3.4432143611        2.8027723254
 H         -3.4311059844       -3.7885833712        2.9470392677
 H         -1.9155192266       -2.5059040222        1.5089993247
 H         -1.3875255198       -2.9538000459       -0.9509315152
 H          1.0658372455       -3.2690230283       -1.0237728532
 H          4.6572151981       -2.8162691134       -0.9849120702
 H          7.0066266889       -3.4824580496       -1.3555488758
  58
  -91.7387765400000       2.447940154377811E-002 !
 C          7.7932248211       -1.5568973892       -0.8699611931
 C          7.4783914167       -0.2613393656       -0.4856153927
 C          6.1680448978        0.1097493810       -0.2705492382
 C          5.1251364464       -0.8124806607       -0.4348089190
 C          3.7313378662       -0.4857600959       -0.2335659102
 C          3.2712092235        0.7476289619        0.2224091101
 C          1.9178239123        0.9972627120        0.4128783057
 C          1.4949674461        2.2700521939        0.9863533752
 C          2.0798392562        3.4673764640        0.5605632803
 C          1.6997857633        4.6753666224        1.1091601927
 C          0.7335295664        4.7211597714        2.1021565251
 C          0.1591493530        3.5405971479        2.5485354738
 C          0.5337342121        2.3304450552        2.0009439201
 C          0.9783196503       -0.0275206858        0.0544691687
 C         -0.3981476370        0.1370354647        0.0376480510
 C         -1.2502421182       -0.9280109838       -0.2997402584
 N         -2.6484736170       -0.7259457296       -0.2741289496
 C         -3.2353307410        0.2166179182       -1.1050153845
 C         -2.4975711726        0.9502671740       -2.0343602138
 C         -3.1153788810        1.8879330429       -2.8403384183
 C         -4.4808306997        2.1045270056       -2.7501988765
 C         -5.2368887952        1.3595814484       -1.8614632879
 C         -4.6259746921        0.4183540797       -1.0491206389
 O         -5.4318022302       -0.3062770043       -0.2186234978
 C         -4.8426247257       -1.2349828285        0.5901896111
 C         -5.6709362859       -1.9536263340        1.4367345767
 C         -5.1336087580       -2.8842480713        2.3091194548
 C         -3.7619893621       -3.0779809679        2.3469406280
 C         -2.9289304269       -2.3684214006        1.5031105967
 C         -3.4529033238       -1.4517473154        0.5916116496
 C         -0.7205505405       -2.1675325553       -0.6387287727
 C          0.6452300754       -2.3414924074       -0.6895399503
 C          1.5296811135       -1.2832612653       -0.3753917436
 N          2.8289317898       -1.4598884228       -0.4976310882
 C          5.4626099550       -2.1193636067       -0.8250220985
 C          6.7729168125       -2.4830051736       -1.0376869402
 H          8.8216131699       -1.8400067812       -1.0375344333
 H          8.2675841671        0.4657364889       -0.3551825406
 H          5.9554379547        1.1264027736        0.0211316177
 H          3.9832764674        1.5133668200        0.4843352197
 H          2.8185583706        3.4434885226       -0.2273730239
 H          2.1556672429        5.5903387791        0.7584911313
 H          0.4360157960        5.6669599263        2.5298248945
 H         -0.5797071683        3.5655873620        3.3370722358
 H          0.1095538768        1.4137265620        2.3846908937
 H         -0.8311016788        1.0892926708        0.3037736534
 H         -1.4379069935        0.7749578489       -2.1236722719
 H         -2.5228667681        2.4474913921       -3.5470327735
 H         -4.9605767941        2.8383342301       -3.3779221504
 H         -6.3046841476        1.4861167089       -1.7832576126
 H         -6.7311090668       -1.7615268715        1.3979607838
 H         -5.7829428040       -3.4432320902        2.9636579922
 H         -3.3327396504       -3.7835977562        3.0409422200
 H         -1.8615816639       -2.5128120875        1.5494826089
 H         -1.3836002455       -2.9802468068       -0.8977955657
 H          1.0704322566       -3.2844099179       -0.9921499698
 H          4.6610121989       -2.8306627465       -0.9525980996
 H          7.0086459674       -3.4945257651       -1.3376339628
  58
  -91.7387539200000       2.390041070929863E-002 !
 C          7.7925428635       -1.5585523249       -0.9066066337
 C          7.4844074873       -0.5538868585       -0.0004413515
 C          6.1745585925       -0.1880333756        0.2260932504
 C          5.1249916408       -0.8207740098       -0.4544450111
 C          3.7320284027       -0.4844924554       -0.2654526002
 C          3.2709780466        0.4954846451        0.6113484714
 C          1.9195832061        0.7927558969        0.7292435552
 C          1.4973288079        1.8820750374        1.6041524640
 C          2.0512949746        2.0157602188        2.8813210850
 C          1.6688889334        3.0479025883        3.7140455276
 C          0.7325714034        3.9786677219        3.2914623096
 C          0.1912908818        3.8715560510        2.0193878195
 C          0.5675994474        2.8387622939        1.1845193556
 C          0.9799351457        0.0165437116       -0.0291249314
 C         -0.3979497267        0.1083503626        0.0930018597
 C         -1.2496031926       -0.6800518419       -0.6993084978
 N         -2.6481456594       -0.5347152166       -0.5616101467
 C         -3.4265461026       -0.1180729637       -1.6313661801
 C         -2.8747947783        0.2234647779       -2.8661969412
 C         -3.6827961722        0.6279352552       -3.9117172563
 C         -5.0564432830        0.7113907404       -3.7489717024
 C         -5.6207299725        0.4118094173       -2.5211391064
 C         -4.8176044511        0.0091874486       -1.4665659568
 O         -5.4328220833       -0.2350462939       -0.2724958655
 C         -4.6529704046       -0.6258969679        0.7777462519
 C         -5.2908846595       -0.8719671349        1.9824833032
 C         -4.5625262858       -1.3027685904        3.0781075402
 C         -3.1978902060       -1.5091852254        2.9577443743
 C         -2.5534220504       -1.2676271923        1.7591728326
 C         -3.2625406327       -0.7962194115        0.6540542657
 C         -0.7178327168       -1.5819456041       -1.6134557987
 C          0.6477352807       -1.7321744490       -1.7173998331
 C          1.5313265992       -0.9641336521       -0.9235195561
 N          2.8293416440       -1.1699655947       -1.0060220031
 C          5.4558962108       -1.8357665152       -1.3680693656
 C          6.7656677069       -2.1969256455       -1.5880704991
 H          8.8208729304       -1.8388272948       -1.0795679920
 H          8.2788349523       -0.0510831085        0.5332720471
 H          5.9684006417        0.5976366735        0.9367947776
 H          3.9811887281        1.0711685085        1.1825909555
 H          2.7675983046        1.2836329444        3.2253987428
 H          2.0994578951        3.1270417382        4.7021768762
 H          0.4328298043        4.7848588803        3.9443408760
 H         -0.5239786032        4.6051006505        1.6747582886
 H          0.1705213365        2.7878918962        0.1808962264
 H         -0.8324354390        0.8060100721        0.7926204618
 H         -1.8055668189        0.1775119585       -2.9955830682
 H         -3.2323556881        0.8834830243       -4.8580974235
 H         -5.6862319889        1.0207678697       -4.5676305068
 H         -6.6829554367        0.4884459770       -2.3533924018
 H         -6.3575727073       -0.7247536595        2.0352584432
 H         -5.0631910180       -1.4897654093        4.0145265686
 H         -2.6268296867       -1.8667600388        3.8000646585
 H         -1.4948252745       -1.4486078088        1.6690687461
 H         -1.3800319382       -2.1875753873       -2.2151350644
 H          1.0730673148       -2.4558472737       -2.3933249971
 H          4.6492137674       -2.3248251160       -1.8926070582
 H          6.9961861275       -2.9807366207       -2.2956656653
  58
  -91.7386898600000       2.233394418093918E-002 !
 C          7.7999469437       -1.6481546900       -0.6374260873
 C          7.4918693302       -0.3585850673       -0.2276989520
 C          6.1800268426        0.0357052961       -0.0723467233
 C          5.1281299085       -0.8570859703       -0.3220292799
 C          3.7334710978       -0.5094627238       -0.1727256712
 C          3.2744493044        0.7229530989        0.2881844204
 C          1.9201724909        0.9901116395        0.4363589366
 C          1.5024187120        2.2793653252        0.9802222647
 C          0.5404579768        2.3730548891        1.9903507006
 C          0.1763812825        3.6006113803        2.5064475145
 C          0.7618017558        4.7639813435        2.0308841532
 C          1.7290196825        4.6847480731        1.0411507822
 C          2.0988539092        3.4593538839        0.5247888284
 C          0.9762780065       -0.0192079308        0.0471643144
 C         -0.3995565665        0.1501869330        0.0318152399
 C         -1.2548154981       -0.8964429094       -0.3545316443
 N         -2.6525200836       -0.6977924802       -0.3218190847
 C         -3.2419743268        0.2933115051       -1.0928061377
 C         -2.5044067176        1.0988864328       -1.9608841444
 C         -3.1250367918        2.0860245676       -2.7032056583
 C         -4.4934363756        2.2817075824       -2.6115388284
 C         -5.2494564848        1.4656131027       -1.7876289785
 C         -4.6356185043        0.4748944750       -1.0388432703
 O         -5.4425253519       -0.3178067283       -0.2743309829
 C         -4.8509773070       -1.2910911728        0.4781445179
 C         -5.6807837959       -2.0775946095        1.2605910754
 C         -5.1423036680       -3.0557687974        2.0785036842
 C         -3.7681909384       -3.2279252122        2.1288448495
 C         -2.9338562093       -2.4514212092        1.3476292500
 C         -3.4582080804       -1.4872260691        0.4863246256
 C         -0.7264555515       -2.1218035555       -0.7446266706
 C          0.6381729738       -2.3041256816       -0.7802819989
 C          1.5256952255       -1.2679892081       -0.4061670397
 N          2.8251542113       -1.4624152251       -0.4888586778
 C          5.4589061371       -2.1574791257       -0.7394721037
 C          6.7708554458       -2.5439358555       -0.8932741060
 H          8.8299359044       -1.9498723880       -0.7562664541
 H          8.2879087924        0.3453035453       -0.0286566162
 H          5.9734652475        1.0470111218        0.2436548988
 H          3.9871432479        1.4772917670        0.5801537368
 H          0.1082589423        1.4704021263        2.3974039933
 H         -0.5638597365        3.6526042476        3.2924202986
 H          0.4721455312        5.7229919720        2.4337721118
 H          2.1944050218        5.5860870503        0.6684921743
 H          2.8409478758        3.4070134425       -0.2588858258
 H         -0.8312346158        1.0894331264        0.3416904838
 H         -1.4423228546        0.9413111659       -2.0536634030
 H         -2.5320440084        2.7010167074       -3.3618274440
 H         -4.9753536238        3.0542870450       -3.1889281047
 H         -6.3194972900        1.5735899847       -1.7123310667
 H         -6.7432163293       -1.8997803001        1.2162855703
 H         -5.7926516161       -3.6682049975        2.6822407128
 H         -3.3379543263       -3.9698670714        2.7831798180
 H         -1.8650990633       -2.5810518175        1.4049930326
 H         -1.3905893310       -2.9177128690       -1.0492436903
 H          1.0614470005       -3.2359178850       -1.1179015917
 H          4.6505738090       -2.8460152465       -0.9331015608
 H          7.0014082282       -3.5502860234       -1.2131993846
  58
  -91.7386369000000       2.111673138596800E-002 !
 C          7.7973523674       -1.4934053180       -0.9802340822
 C          7.4880484129       -0.5195152606       -0.0412606164
 C          6.1772048542       -0.1705841625        0.2048934980
 C          5.1275603912       -0.7895390678       -0.4887334575
 C          3.7343284012       -0.4674412344       -0.2822717841
 C          3.2731968607        0.5075234502        0.6006257908
 C          1.9207795875        0.7866956244        0.7402216388
 C          1.5008938330        1.8477503431        1.6525695466
 C          2.0561115002        1.9309588921        2.9330073362
 C          1.6818354512        2.9352160090        3.8028991826
 C          0.7518689735        3.8868043887        3.4143149249
 C          0.2090588770        3.8290791785        2.1398783699
 C          0.5774286488        2.8239848239        1.2678889466
 C          0.9783437374        0.0101515295       -0.0145870451
 C         -0.3994350676        0.1099387826        0.1003105561
 C         -1.2529474784       -0.6890454709       -0.6808943771
 N         -2.6508170824       -0.5336748661       -0.5593158235
 C         -3.4185683808       -0.1643406603       -1.6548165788
 C         -2.8542549920        0.1325004995       -2.8957317782
 C         -3.6521532536        0.4833117451       -3.9679903183
 C         -5.0287671321        0.5572294572       -3.8275309658
 C         -5.6056935868        0.3068830682       -2.5946385281
 C         -4.8123846580       -0.0404124007       -1.5131824533
 O         -5.4406128415       -0.2327354349       -0.3166367284
 C         -4.6706775828       -0.5646794372        0.7607322657
 C         -5.3216576445       -0.7475222443        1.9697681147
 C         -4.6053826472       -1.1200415069        3.0942958735
 C         -3.2401406221       -1.3347410503        2.9984219975
 C         -2.5827786518       -1.1562464337        1.7956742827
 C         -3.2787203535       -0.7389556494        0.6606613414
 C         -0.7202703693       -1.6080136128       -1.5779764470
 C          0.6448792626       -1.7533923367       -1.6873656055
 C          1.5301893918       -0.9698685181       -0.9103461102
 N          2.8288561394       -1.1580017044       -1.0147743822
 C          5.4596024570       -1.7745637485       -1.4344790554
 C          6.7704413339       -2.1186908018       -1.6741581163
 H          8.8264869820       -1.7611698067       -1.1677659949
 H          8.2823711756       -0.0290409109        0.5037904981
 H          5.9696446100        0.5886855863        0.9433780180
 H          3.9838518745        1.0890209649        1.1655497855
 H          2.7686564283        1.1823603858        3.2485231889
 H          2.1140042640        2.9761254906        4.7926571390
 H          0.4581999427        4.6712819852        4.0957894403
 H         -0.5010676108        4.5796551141        1.8223868115
 H          0.1791831162        2.8118959432        0.2634957581
 H         -0.8339293078        0.8274361799        0.7790707009
 H         -1.7830163480        0.0939986147       -3.0100173470
 H         -3.1912903265        0.7029340788       -4.9182276131
 H         -5.6507908775        0.8221816490       -4.6674321203
 H         -6.6706652408        0.3804958458       -2.4433828676
 H         -6.3887834316       -0.5976983460        2.0028005573
 H         -5.1159303991       -1.2566056793        4.0341166090
 H         -2.6784921302       -1.6503234156        3.8636426483
 H         -1.5241464987       -1.3456234580        1.7265613044
 H         -1.3825073949       -2.2276426740       -2.1651539913
 H          1.0694986821       -2.4887719707       -2.3509574733
 H          4.6530938316       -2.2509345445       -1.9707646543
 H          7.0018896701       -2.8785225399       -2.4072295027
  58
  -91.7385635400000       1.953946974535164E-002 !
 C          7.8055591802       -1.6634918245       -0.5709149789
 C          7.4946315838       -0.3816131049       -0.1397027331
 C          6.1816286213        0.0151752719       -0.0019926618
 C          5.1310982959       -0.8673834705       -0.2912841819
 C          3.7355599013       -0.5177047582       -0.1591971185
 C          3.2723878086        0.7167981937        0.2927478588
 C          1.9172644198        0.9866040090        0.4222786314
 C          1.4940120323        2.2900766306        0.9293856734
 C          0.5345653017        2.4103177173        1.9385529093
 C          0.1625148356        3.6522507430        2.4135204606
 C          0.7376320674        4.8028434722        1.8964645786
 C          1.7039645373        4.6972227287        0.9083960052
 C          2.0816553100        3.4575224515        0.4332384168
 C          0.9758817234       -0.0257768073        0.0352958059
 C         -0.4003820626        0.1370738487        0.0268557589
 C         -1.2537329218       -0.9086310030       -0.3686325800
 N         -2.6508185479       -0.7134638966       -0.3257241000
 C         -3.2408462047        0.3085767371       -1.0552571852
 C         -2.5081029920        1.1310575017       -1.9118083635
 C         -3.1271236127        2.1529692774       -2.6068167727
 C         -4.4898032386        2.3675905979       -2.4795579494
 C         -5.2427522188        1.5340594093       -1.6703637185
 C         -4.6303709435        0.5079883074       -0.9695016481
 O         -5.4350318549       -0.3000284517       -0.2191262334
 C         -4.8445025261       -1.3083021787        0.4865702217
 C         -5.6732606113       -2.1123175760        1.2521402451
 C         -5.1363377493       -3.1259219299        2.0264669345
 C         -3.7639071537       -3.3152014329        2.0518317793
 C         -2.9307359649       -2.5208641897        1.2874452732
 C         -3.4543430443       -1.5212994666        0.4670835380
 C         -0.7208052826       -2.1265465720       -0.7755166865
 C          0.6443583797       -2.3060797076       -0.8068870597
 C          1.5294648348       -1.2730693512       -0.4178796897
 N          2.8293135246       -1.4698767314       -0.4846779154
 C          5.4648928787       -2.1604553149       -0.7289013682
 C          6.7780508659       -2.5491345923       -0.8656473809
 H          8.8364255238       -1.9673793928       -0.6754048972
 H          8.2893972312        0.3141169677        0.0901727070
 H          5.9731078084        1.0198008017        0.3328204728
 H          3.9818344541        1.4742797049        0.5846221541
 H          0.1101646690        1.5186700891        2.3771410028
 H         -0.5764203410        3.7256328883        3.1990352731
 H          0.4407709160        5.7729824080        2.2662439679
 H          2.1618431880        5.5888496868        0.5041984861
 H          2.8225334518        3.3830581117       -0.3498415959
 H         -0.8357226098        1.0694194403        0.3517099411
 H         -1.4510895312        0.9595642930       -2.0330785850
 H         -2.5374716378        2.7805841718       -3.2564715383
 H         -4.9702232110        3.1680310270       -3.0191230799
 H         -6.3092651389        1.6555383881       -1.5700192407
 H         -6.7337368258       -1.9192720348        1.2298349359
 H         -5.7859949875       -3.7520186214        2.6168065923
 H         -3.3337367205       -4.0846065283        2.6737025671
 H         -1.8631348583       -2.6643135277        1.3276279137
 H         -1.3814863064       -2.9195257124       -1.0948550166
 H          1.0704313117       -3.2326411785       -1.1553063895
 H          4.6577846623       -2.8417028351       -0.9512415907
 H          7.0108338143       -3.5497311012       -1.2016661792
