108
 energy: -159.416412310574 gnorm: 0.000043305739 xtb: 6.7.1 (edcfbbe)
C           -2.92216041466897        6.83129697927699       -0.24651763256327
C           -1.63210606250922        5.99292418722463       -0.15951677550053
C           -0.39978090821816        6.91803182126697       -0.12284729862306
C           -1.54035279546845        5.11182637111289       -1.38908606421450
C           -1.50790005808938        5.69144674696395       -2.65024735014406
C           -1.42530415635584        4.93334434650259       -3.80412927126814
C           -1.37083582750599        3.55178637134161       -3.70978823741869
C           -1.39982769406218        2.94878014841698       -2.47190320068143
C           -1.48318699200578        3.71332878334979       -1.30076566760835
N           -1.50927307726601        3.07857820540333       -0.07530367863550
C           -1.47618334120212        1.65220138349701       -0.03519062390287
C           -0.26518371634818        0.99596901523328       -0.02374353091241
C           -0.20716775433356       -0.41441077520885        0.00719638874320
C            1.01667371694827       -1.15546817256794        0.01147988524190
C            2.29481096972516       -0.57839125152103        0.07036141364189
C            3.40418502972634       -1.40717294919686        0.06629043516962
C            4.77093346824817       -0.92784357334962        0.10661643591876
C            5.11274564938456        0.39500515798547        0.42053160609387
C            6.42684406471478        0.80310983588758        0.43392119168229
C            7.46793005158837       -0.08379074458507        0.14455876016447
C            8.86502790017271        0.35853815821055        0.15808206364464
C            9.21982400998948        1.62428970128590       -0.31166183703041
C           10.53779892536197        2.03958304190355       -0.30165485504482
C           11.53064765227564        1.20204053443325        0.18080736518961
C           11.19279757858892       -0.05670125985497        0.65156509087252
C            9.87585235225326       -0.47516537743085        0.63940213513128
C            7.13031078442960       -1.40692614826475       -0.15650976378279
C            5.81903723007794       -1.81799396815760       -0.17593988207623
N            3.23001579032920       -2.75922331240768       -0.00261689111495
C            2.00561437385628       -3.25484993069797       -0.05818214668068
C            1.85562826603676       -4.71311103252378       -0.13475240357633
C            0.61994731317033       -5.28055195133388       -0.43555594953359
C            0.48258333082080       -6.65372637894222       -0.50825877902080
C            1.57589989487620       -7.47477506423296       -0.27986780372922
C            2.80881987566417       -6.91714150596246        0.02067029151548
C            2.94986898887735       -5.54404610941768        0.09221615019581
N            0.91847334980731       -2.51834558701432       -0.04801084480515
C           -1.43741223693808       -1.11157865638881        0.03142658495220
C           -2.63653281585289       -0.44008921538675        0.02393009553347
N           -3.86414069640495       -1.16771565670066        0.05563714951212
C           -4.43729490320803       -1.56464901701409       -1.13479385504253
C           -3.78566083336665       -1.28037532166141       -2.34239295458868
C           -4.33319798032243       -1.65940133848927       -3.54770394736032
C           -5.54546294938685       -2.33114079120959       -3.57237008262603
C           -6.19106301588171       -2.61503780894506       -2.38258366113790
C           -5.66351314566534       -2.24586736721635       -1.15251970796645
C           -6.41422050667343       -2.58384177917028        0.11942752837720
C           -7.79744057107516       -1.90550921160085        0.07297034658252
C           -6.57564084563143       -4.11429243073147        0.20477828143169
C           -5.68006439014572       -2.10314559304418        1.35453538009609
C           -6.22435960927881       -2.33079296161482        2.61129656043578
C           -5.59452954892734       -1.91351045735374        3.76976299563461
C           -4.38080104704933       -1.24942027148581        3.68516869513393
C           -3.81679266943820       -1.00942272561499        2.45212581021249
C           -4.45370900502919       -1.42675863097911        1.27575014285377
C           -2.68503148287955        0.95557336438859       -0.01240668842145
C           -1.59801524360190        3.77841187125084        1.11106434941892
C           -1.61655648391673        3.07833325371523        2.32447425502535
C           -1.70578929827175        3.74637102899284        3.52554010995251
C           -1.77725646529177        5.13034912574439        3.53971924329452
C           -1.75292229053474        5.82533301399717        2.34417337863089
C           -1.66403465251389        5.17924290999833        1.11848168136617
H           -3.79061937412333        6.17559582121743       -0.27335122868137
H           -2.92537642743622        7.44263439779256       -1.14411786560868
H           -3.01400047262677        7.48854068283624        0.61315619135082
H           -0.34908578499126        7.52874616511380       -1.01958264605112
H           -0.43834864153330        7.57857137808952        0.73848258834949
H            0.51018296439757        6.32352511983456       -0.05987894304101
H           -1.54770635332249        6.76581645778367       -2.74184192958900
H           -1.40252352946529        5.41704096608289       -4.76877034471203
H           -1.30566555569759        2.94393967022205       -4.59980291137135
H           -1.35366595989955        1.87370816044452       -2.39824583148652
H            0.63893614056907        1.58371764646746       -0.04845395587528
H            2.41226838668313        0.49160161863065        0.10594248381820
H            4.34400128426214        1.10922481676113        0.67687207385324
H            6.65979919061987        1.82412039060918        0.70213198764433
H            8.45580333543882        2.27689298510149       -0.70924779581776
H           10.79379600934125        3.02092184827671       -0.67593584588014
H           12.56069780592955        1.52768911008183        0.18947734425714
H           11.96087875321360       -0.71404664452971        1.03424255402756
H            9.62024714018113       -1.45069664426260        1.02752360738067
H            7.91144199685757       -2.11201054849294       -0.40327768026076
H            5.56742048299564       -2.83837926572341       -0.42397491849527
H           -0.22078410452774       -4.62757821180044       -0.61498586808940
H           -0.47858328556313       -7.08707100014474       -0.74458556143138
H            1.46743377687721       -8.54812833296963       -0.33629572800086
H            3.66175934530632       -7.55572544791303        0.19994939362683
H            3.90237792928735       -5.09370341749898        0.32813194341793
H           -1.41432222092964       -2.18908509727830        0.06217951446559
H           -2.83979399009658       -0.76266822592004       -2.32183463060120
H           -3.81427006507368       -1.43156553522636       -4.46671420881591
H           -5.98406460042138       -2.63283168321074       -4.51129999706416
H           -7.13293899695122       -3.13997923851784       -2.42036732334760
H           -8.35948599361235       -2.23387909855917       -0.79637370804521
H           -7.67977004391074       -0.82466366165425        0.01901615088116
H           -8.37381181070657       -2.14421356806990        0.96195246654488
H           -5.59687561163116       -4.59021315193404        0.22934462738481
H           -7.11700173908626       -4.39595326548728        1.10315696339830
H           -7.12072686172865       -4.49339219223965       -0.65466761788274
H           -7.16741890198701       -2.84811930221865        2.69560728337143
H           -6.04606356184849       -2.10659543982132        4.73089870681643
H           -3.87304375732447       -0.92045156357914        4.57944582551865
H           -2.86891504339655       -0.49941329920274        2.38615216705771
H           -3.62723257404369        1.47942942856619       -0.02059403268438
H           -1.55476721487188        2.00162845638223        2.31296877034061
H           -1.71862365136620        3.18748201768356        4.44927961738656
H           -1.84780924359823        5.66472032115907        4.47487013770686
H           -1.80425409331677        6.90272506635725        2.37370004002704
