108
 energy: -159.486887019897 gnorm: 0.000025065018 xtb: 6.7.1 (edcfbbe)
C           -1.99158749129328        6.94937915103883        0.29144002098706
C           -0.80647383121555        5.97086555656786        0.39233946971219
C            0.50911346354328        6.74647940260040        0.59374298676356
C           -0.71243819321636        5.18337171487190       -0.90183399728422
C           -0.51133870044093        5.85507932254852       -2.10013388718655
C           -0.41245794215367        5.19023733736834       -3.30909394692803
C           -0.50997208109929        3.81060876532914       -3.33253015488743
C           -0.70910715675985        3.11810486800366       -2.15646868703053
C           -0.81747848618574        3.78869118300126       -0.93470910800043
N           -1.02307074566380        3.06324051172435        0.22832418674109
C           -1.13832965910569        1.64803695079479        0.14295243021160
C           -0.00852056905765        0.85393345638952        0.28502947670130
C           -0.11690067860330       -0.53099847398134        0.20419693786574
C            1.05232371983048       -1.40514134442069        0.38482809575710
C            2.34277331432080       -1.01460980965898        0.03911112751609
C            3.36968799694887       -1.93227296020430        0.27449658570370
C            4.77279511311003       -1.64811735630110       -0.04204936736809
C            5.64749539849492       -2.70651114143899       -0.28890993540038
C            6.97240169166500       -2.47040154032457       -0.58848568771423
C            7.46885518955966       -1.16816656080515       -0.64696163281858
C            8.88139162308789       -0.91356036510345       -0.96578489721268
C            9.88749231969791       -1.70368289290048       -0.41296723600847
C           11.21590725350831       -1.46041009205819       -0.71000766191773
C           11.56054236053282       -0.43040658359683       -1.57000621688574
C           10.56816563280609        0.35863898182131       -2.12832351277447
C            9.23954978240477        0.12235378099524       -1.82650097682395
C            6.59514203389277       -0.11224681633710       -0.39045986429019
C            5.26821432364744       -0.34575332900417       -0.09175079532333
N            3.10468624152615       -3.12916268228513        0.79539389685876
C            1.84253143298461       -3.42370200768280        1.08719820710452
C            1.56658862559616       -4.74278192071794        1.66399200797653
C            0.26289268848969       -5.10458909921955        2.00061782844996
C            0.00637159263468       -6.34813805218470        2.54585259337975
C            1.04438925749621       -7.24163149898949        2.76117170859212
C            2.34361011031689       -6.88654466147137        2.43201576460924
C            2.60615628271333       -5.64446100247053        1.88646809299866
N            0.80955297206870       -2.60766637174064        0.90110114602713
C           -1.36170929957639       -1.10797775516836       -0.02842889743181
C           -2.49240090206643       -0.31490950097470       -0.16731571491056
N           -3.75831766155369       -0.90962005099826       -0.39382026362025
C           -4.36675667973609       -0.74906151771541       -1.63260630723978
C           -3.69116093642519       -0.07835056837932       -2.65663296653457
C           -4.27532358050067        0.11516318796108       -3.89078915618964
C           -5.54793750742008       -0.36993470336876       -4.13226716280792
C           -6.20498493953378       -1.06420013721734       -3.13332083098874
C           -5.63852327153133       -1.27499028998246       -1.88298443274368
C           -6.40048226147155       -2.07962219782277       -0.84721389607304
C           -7.73182087870715       -1.36657730765051       -0.54429054284922
C           -6.66674359086057       -3.48533455832389       -1.41849849659945
C           -5.62006708952399       -2.21748474320464        0.44661445488752
C           -6.17430593826228       -2.93279767406033        1.50035168690802
C           -5.52935523210124       -3.07364042228910        2.71494721911325
C           -4.29877343014030       -2.46929084698041        2.89802014429579
C           -3.72623932352250       -1.75223055946714        1.86828183992316
C           -4.36279422298298       -1.63170002523136        0.62924128072329
C           -2.38080288934675        1.06892937699413       -0.07684347198702
C           -1.12611186791007        3.67584765360493        1.46767243622146
C           -1.33413068854755        2.89502719117780        2.60818959272255
C           -1.43523608464707        3.47409305871921        3.85609758889699
C           -1.33312600492078        4.84740198990954        3.98706112177213
C           -1.13101432227709        5.62163601702001        2.85886808987652
C           -1.02508661559194        5.06573627978858        1.59101734269128
H           -2.91913502816009        6.39560101202246        0.15510229564380
H           -1.86724315532322        7.62349263446158       -0.55143241912604
H           -2.07863769293638        7.54651988684291        1.19487674448010
H            1.34160458972393        6.04923899936865        0.67331331585373
H            0.69838677521909        7.41313974484738       -0.24293117663877
H            0.47278572776538        7.34166555524785        1.50186970308408
H           -0.42936403987746        6.93147320824671       -2.09731226948980
H           -0.25788087635774        5.74517889181527       -4.22221064513456
H           -0.43146536029999        3.26981140801180       -4.26442112451974
H           -0.77877576615464        2.04115542347960       -2.17988473113920
H            0.94195934923528        1.32536802290826        0.48328563854645
H            2.53362125351827       -0.06288059500906       -0.42694447897131
H            5.26175035581829       -3.71365640348359       -0.25045315587197
H            7.62983127245496       -3.30107067536891       -0.79878800908939
H            9.62544033231660       -2.49782888322161        0.27109053733954
H           11.98627084902984       -2.07599865260505       -0.26811431294438
H           12.59836492128426       -0.24306970200074       -1.80390306345835
H           10.83102478120051        1.16087345378064       -2.80295157221112
H            8.46895555460145        0.73072441501751       -2.27760706662505
H            6.96767673226410        0.90164361180152       -0.40316611117111
H            4.62202869817926        0.49055281439791        0.13085288031024
H           -0.53450243919175       -4.39757211002075        1.83205139808593
H           -1.00605058367803       -6.62229784798228        2.80446528558141
H            0.84159671207847       -8.21338347907036        3.18710121692379
H            3.15310383949976       -7.58126384330049        2.60218680977342
H            3.61193685115319       -5.35086569553701        1.62920710918501
H           -1.43883688491744       -2.18211302311273       -0.09366465827363
H           -2.69219458047443        0.29067009881638       -2.48510255214738
H           -3.73213828737062        0.64283668480750       -4.66106081217726
H           -6.02084359373035       -0.22055379891519       -5.09121630490542
H           -7.19032140278990       -1.45311021853609       -3.34044576625378
H           -8.31256613154747       -1.92381421222789        0.18541071968352
H           -8.32862051422491       -1.26151129775237       -1.44604825847414
H           -7.53782403159249       -0.37329305615669       -0.14268153005099
H           -7.22600009124100       -4.09168721834417       -0.71162673284172
H           -7.23630063881886       -3.42785658977733       -2.34179511350829
H           -5.72241790382650       -3.98518278051389       -1.62822180282159
H           -7.14153842299932       -3.39529800969376        1.37543831882830
H           -5.98791941410019       -3.64046009417228        3.51116435754407
H           -3.78065936625109       -2.55108230291036        3.84234488195504
H           -2.76991917432000       -1.27947831984264        2.02845607872765
H           -3.25620345433076        1.69278159741601       -0.18045807911378
H           -1.41581790838339        1.82304364738545        2.51211575180604
H           -1.59530261934871        2.84979543011324        4.72300357654439
H           -1.41025849609116        5.31361685520359        4.95779739992447
H           -1.05535040412082        6.69196709695246        2.97666307117094
