108
 energy: -159.416382778083 gnorm: 0.000038574425 xtb: 6.7.1 (edcfbbe)
C           -2.79899590852206        6.84812358718870        0.77597091260633
C           -1.57007507960144        5.93690132378808        0.96148702233015
C           -0.36556265838470        6.76325481639386        1.45290866858916
C           -1.22305267994615        5.31609333491771       -0.37645544166330
C           -0.90427581415862        6.13450812360615       -1.45174788666590
C           -0.59184977775006        5.62115291595644       -2.69739096097316
C           -0.60069633720901        4.24886880340906       -2.89025806142121
C           -0.91104148662745        3.41225954232499       -1.84105736636042
C           -1.21732468923895        3.92768074482367       -0.57469890953707
N           -1.51533184168513        3.06233654410837        0.45919925901792
C           -1.48841008997201        1.65699035649693        0.21429430507301
C           -0.28645642667162        0.98390785606693        0.23909619337970
C           -0.23002279072544       -0.40474442172697       -0.00536190323992
C            0.98772669500653       -1.15736641699537       -0.00744676751232
C            2.26813330412147       -0.59082582282113        0.07311030726746
C            3.37377489092610       -1.42558362172986        0.04244825046348
C            4.74370298179310       -0.95945520656120        0.09693091625803
C            5.10107712612856        0.39533561140027        0.03563940691136
C            6.42052949401333        0.78332812416704        0.07522142645060
C            7.45278029495016       -0.15277490191370        0.18684835086701
C            8.85595146433887        0.26777825720488        0.22558797205173
C            9.30792692701367        1.32799350937599       -0.56200309225934
C           10.63248942181722        1.72048835601579       -0.52859254241736
C           11.53475729888176        1.06595272955100        0.29451565346137
C           11.09958742185732        0.01312880641766        1.08340586617590
C            9.77626429461775       -0.38341001839058        1.04866340351995
C            7.09972404859779       -1.50409093194925        0.25471798544567
C            5.78390918270755       -1.89691889652034        0.20553499736737
N            3.18713969829905       -2.77587105566965       -0.04219065349054
C            1.96054169436839       -3.26169557265710       -0.11845211194430
C            1.79733083552213       -4.71733801321381       -0.21457231196757
C            0.52965325883271       -5.29014562423950       -0.14545828690548
C            0.37781912181344       -6.66076996751048       -0.23395456350456
C            1.48877960150388       -7.47460798451678       -0.39274407133379
C            2.75367799266675       -6.91195664632406       -0.46194297973667
C            2.90865672804572       -5.54137474712946       -0.37363954854486
N            0.87887979655074       -2.51615086042481       -0.11283572057027
C           -1.45271703473646       -1.06687381081699       -0.25922948671796
C           -2.64378250631462       -0.38069930965071       -0.27716413165707
N           -3.86122598280533       -1.07876718294664       -0.53647538754323
C           -4.35984497086070       -1.09620265866359       -1.82290185794812
C           -3.66041238995990       -0.43717360523627       -2.84283040563776
C           -4.13413449465888       -0.43096938553215       -4.13581229880729
C           -5.31629934589175       -1.08798503039758       -4.43916999954523
C           -6.00535882484926       -1.74682075339622       -3.43717024858341
C           -5.55380053277426       -1.76804171219563       -2.12442376636516
C           -6.34401115562761       -2.51553738267560       -1.06992165264107
C           -7.76219611731254       -1.91741476297194       -0.99357360960220
C           -6.41568762336893       -4.00151990382255       -1.47275722115467
C           -5.69950274447214       -2.41487845454458        0.29747536927873
C           -6.29783609962141       -3.03326590247551        1.38709003083177
C           -5.75223033219347       -2.97129812105836        2.65641845851704
C           -4.57220288423248       -2.27265017231837        2.85817425527589
C           -3.95555890912747       -1.65010960888834        1.79589604819380
C           -4.50295824980247       -1.71336300773599        0.50742927924286
C           -2.68977282080231        0.99611266433138       -0.04544316263231
C           -1.84428382172850        3.51469520094049        1.72166345914531
C           -2.12404624840176        2.58898294376039        2.73548496138505
C           -2.46278066329167        3.00801485175248        4.00293871246325
C           -2.52406232498830        4.36306547160931        4.28672991333942
C           -2.23563115078659        5.27994669063708        3.29227025991274
C           -1.89241029651274        4.88718960256094        2.00558663760816
H           -3.64418781232472        6.26311398820294        0.41785205788849
H           -2.59268343660511        7.63197649083090        0.05311494298459
H           -3.07792348579199        7.31616405542832        1.71543102271163
H           -0.10589330741683        7.53358042387511        0.73260959077041
H           -0.58869236315684        7.24406931558302        2.40088844398749
H            0.49875784905890        6.11570619026041        1.59102299077690
H           -0.89795447504544        7.20539074162697       -1.31985561058318
H           -0.34713181762555        6.28637872006308       -3.51140306024190
H           -0.36521718951982        3.82976892139008       -3.85715742256550
H           -0.91599153117439        2.34432684301794       -1.99231017625919
H            0.61121717297743        1.54103120726809        0.45683614608107
H            2.38878090887876        0.47659772007200        0.14904909200118
H            4.34051857554218        1.15697619080929       -0.05292575817696
H            6.66237070334614        1.83646426607498        0.04117437965640
H            8.61678792797922        1.83156921412831       -1.22268084235206
H           10.96498564036001        2.53937789244881       -1.15108830946998
H           12.56993925162055        1.37392495134681        0.32074364225411
H           11.79623443109407       -0.49979285832093        1.73159792750410
H            9.44271019549279       -1.19314706559077        1.68174961340019
H            7.87567100398960       -2.25373217974110        0.32006580970318
H            5.52231203555538       -2.94338822037999        0.25025371451642
H           -0.32504236478474       -4.64341160801821       -0.01676605158857
H           -0.60856307994896       -7.09813108339925       -0.17801420031694
H            1.36918676604660       -8.54603922675510       -0.46142778793873
H            3.62081861458738       -7.54451832917102       -0.58584821114777
H            3.88657855920026       -5.08753822110586       -0.42852926714311
H           -1.43135725427745       -2.12863092700684       -0.44568064123303
H           -2.73607212308792        0.06623833967821       -2.60848340361459
H           -3.58002799373065        0.08351002735014       -4.90655179801530
H           -5.69651286887821       -1.09052446423701       -5.44933615026095
H           -6.92019510502648       -2.25877442972050       -3.69235613931236
H           -8.25948281969217       -1.97885852607934       -1.95701915329745
H           -7.70842534780675       -0.87077862077325       -0.69944455826967
H           -8.36638755300455       -2.44900610141912       -0.26443100964164
H           -6.89334610236001       -4.11546688264739       -2.44149084413377
H           -5.41207863365314       -4.41905802185929       -1.53252436875723
H           -6.98245792180261       -4.57192885535999       -0.74271250771398
H           -7.21667538298997       -3.58138266579780        1.24780697484654
H           -6.24369841944898       -3.46417946298111        3.48136524069432
H           -4.13207563661037       -2.21298377684499        3.84229201045276
H           -3.03478768597986       -1.11090632424005        1.95236396724523
H           -3.62490125994526        1.53241846302848       -0.06316149694381
H           -2.06812759858698        1.53432694775475        2.51769207314965
H           -2.67617448468945        2.27747987931188        4.76880063567729
H           -2.78930555058411        4.70336704463615        5.27607163912161
H           -2.27898734065887        6.33094052672180        3.53260968848250
