  99
       -151.54485303
 C         -9.1269998860        4.1336818570        3.0160429921
 C         -9.6560226733        2.8546280167        3.0592504059
 C         -9.0558461192        1.8292185602        2.3524141623
 C         -7.9121156518        2.0660081675        1.5940641707
 C         -7.2724417267        0.9822536624        0.8322544982
 C         -8.0436072388        0.0507885426        0.1424352116
 C         -7.4427304969       -0.9693551272       -0.5898874615
 C         -8.2626162821       -1.9559128867       -1.3098718570
 C         -9.4097157762       -1.5673310771       -1.9972699879
 C        -10.1793991997       -2.5009974237       -2.6659059095
 C         -9.8190793578       -3.8380760372       -2.6544654903
 C         -8.6808076796       -4.2356891942       -1.9732681717
 C         -7.9070310307       -3.3028786082       -1.3085698166
 C         -6.0566587509       -1.0497596427       -0.6291592496
 C         -5.2612412145       -0.1315625384        0.0590033081
 C         -3.8058191370       -0.2251338202        0.0203604778
 C         -3.1609492566       -1.4517910762        0.3573498147
 C         -3.8804396068       -2.5686060129        0.7980589305
 C         -3.2619044991       -3.7975038093        0.9993708336
 C         -1.9113251366       -3.9332702088        0.7522853294
 C         -1.1592308423       -2.8199267107        0.3880921732
 C         -1.7417589844       -1.5566382879        0.2559923884
 C         -0.9590716295       -0.3896456065       -0.0180437746
 C          0.4856393700       -0.4651229457       -0.0116656166
 C          1.2453819917        0.0664257390       -1.0667724713
 C          2.6186414879        0.0368238329       -1.0477355942
 C          3.3037541809       -0.5109353571        0.0427341448
 C          4.7450127205       -0.5265986356        0.1425383266
 N          5.4233878939       -1.4965078377        0.7112127774
 C          6.7303142076       -1.1579713186        0.5952770314
 C          7.8656037867       -1.9058399850        1.0152702073
 C          7.7228457542       -3.1569634554        1.6241364516
 C          8.8304251857       -3.8793220397        1.9923588306
 C         10.0989779513       -3.3572419936        1.7489879649
 C         10.2507210626       -2.1250115487        1.1565057782
 C          9.1437704980       -1.3515973413        0.7757803171
 C          9.2700887753       -0.0316199459        0.1817872898
 C         10.5200399800        0.5780254653        0.0070080225
 C         10.6489748881        1.8443322815       -0.5132420231
 C          9.5172268743        2.5710208688       -0.8690824682
 C          8.2738662168        2.0079430120       -0.7214154544
 C          8.1218776424        0.7066212950       -0.2199493458
 C          6.8585268446        0.0757809801       -0.0490899897
 N          5.5739799078        0.4649666237       -0.3455859867
 C          5.1235716576        1.6461251791       -0.9658384366
 C          4.3191626772        2.5275020862       -0.2523968881
 C          3.8341807428        3.6660796304       -0.8698153950
 C          4.1498202496        3.9298323345       -2.1923774942
 C          4.9535558283        3.0517390028       -2.9020315178
 C          5.4391381832        1.9075843062       -2.2960737763
 C          2.5555069862       -1.0881147616        1.0766008455
 C          1.1830070502       -1.0682341726        1.0495566903
 C         -1.6082110399        0.8573844983       -0.2908997578
 C         -0.8916560826        2.0459346787       -0.4584617222
 C         -1.5229189932        3.2320687913       -0.8217339128
 C         -2.8869648071        3.2486325166       -1.0278885920
 C         -3.6341609168        2.1010547509       -0.7873502506
 C         -3.0325653731        0.9145465846       -0.3520577760
 C         -5.8881208987        0.8811979040        0.7879365093
 C         -7.3858121298        3.3554332325        1.5612369826
 C         -7.9904804371        4.3805159189        2.2643261810
 H         -9.5984482607        4.9347376271        3.5657134674
 H        -10.5397479957        2.6551668387        3.6477375890
 H         -9.4639625720        0.8301252511        2.4031451194
 H         -9.1202614342        0.1208679367        0.1752587113
 H         -9.6871612760       -0.5234568391       -2.0234836639
 H        -11.0638485414       -2.1843110273       -3.1993332286
 H        -10.4223968178       -4.5670531940       -3.1746127344
 H         -8.3960353365       -5.2777144653       -1.9581365034
 H         -7.0282030975       -3.6218649146       -0.7669832654
 H         -5.5815105828       -1.8029645247       -1.2397769888
 H         -4.9372841323       -2.4736311109        0.9921457957
 H         -3.8471092068       -4.6426765148        1.3303128841
 H         -1.4274770546       -4.8928720128        0.8554427178
 H         -0.1052589645       -2.9420235217        0.1942024066
 H          0.7327606685        0.4603770015       -1.9320634754
 H          3.1644182382        0.4131778043       -1.8991145171
 H          6.7225884393       -3.5283172056        1.7838305414
 H          8.7249371896       -4.8461714115        2.4614342615
 H         10.9743093867       -3.9254435400        2.0287319309
 H         11.2524096849       -1.7640636437        0.9857916661
 H         11.4168664609        0.0534722480        0.2940155992
 H         11.6297467581        2.2802151031       -0.6330631627
 H          9.6144488644        3.5747068613       -1.2553885260
 H          7.3991725538        2.5825015850       -0.9803835569
 H          4.0773750429        2.3102388900        0.7774184784
 H          3.2105230389        4.3500751109       -0.3137832154
 H          3.7691140930        4.8188833962       -2.6715979363
 H          5.1997068124        3.2548275764       -3.9332644635
 H          6.0625780110        1.2136563912       -2.8409244517
 H          3.0852970962       -1.5275474202        1.9072693712
 H          0.6233550967       -1.4690433331        1.8817806863
 H          0.1748987570        2.0520392893       -0.2966987366
 H         -0.9363596380        4.1287322190       -0.9557653147
 H         -3.3820429273        4.1505799485       -1.3560838777
 H         -4.7011246944        2.1253945970       -0.9450409756
 H         -5.2828527284        1.5659413227        1.3630640469
 H         -6.5076168180        3.5576526156        0.9651518808
 H         -7.5748931954        5.3769566217        2.2239252524
