  62
  -94.7169256541000       0.299456681296880      !
 C         -7.7819220343       -2.9746312702        0.2724098365
 C         -6.6860933225       -3.1248988419       -0.5657945356
 C         -5.7277991441       -2.1354838750       -0.6475530767
 C         -5.8562182155       -0.9741177658        0.1177247194
 N         -4.8887007951        0.0291098227        0.0383916024
 C         -5.1429965427        1.3802658604       -0.1435664293
 C         -6.3533740095        2.0356293639       -0.3099054790
 C         -6.3236946566        3.4071047150       -0.5120397279
 C         -5.1257599676        4.1069086195       -0.5581158889
 C         -3.9111144258        3.4492093789       -0.4230479121
 C         -3.9173807864        2.0805484268       -0.2220671994
 C         -2.8689491470        1.0969318559       -0.0794545398
 C         -1.5076093732        1.1891632288       -0.0660661281
 C         -0.7018216635        0.0081287003        0.0918847558
 C          0.7037873472        0.0499501704        0.0567204121
 C          1.4327441099        1.2979584120        0.0809781958
 C          2.7914354943        1.3723925486        0.0804759373
 C          3.5344364108        0.1793226873        0.0500149474
 C          2.8580853236       -1.0755026907       -0.0379384072
 C          1.4954483782       -1.1484361587       -0.0299508002
 C          3.8950191110       -2.0768115755       -0.1364629207
 C          3.8744083500       -3.4573634759       -0.2231279156
 C          5.0825715505       -4.1393299944       -0.2619529479
 C          6.2891795497       -3.4559878071       -0.1959097065
 C          6.3333390481       -2.0727940037       -0.1105991557
 C          5.1285349895       -1.3867988216       -0.1033775415
 N          4.8901500476       -0.0251063679        0.0056337316
 C          5.8703118142        0.9648648700        0.0966377873
 C          5.7852565902        1.9486038375        1.0845966269
 C          6.7541802978        2.9275086379        1.1684542611
 C          7.8182302578        2.9415003475        0.2778173717
 C          7.9039763448        1.9661650445       -0.7054831326
 C          6.9390229357        0.9844460304       -0.8025326386
 C         -1.4171375465       -1.2301389160        0.3073914378
 C         -2.7747488951       -1.3216016974        0.3088372944
 C         -3.5304150210       -0.1594095764        0.0745200689
 C         -6.9565820890       -0.8279634184        0.9657742698
 C         -7.9101134384       -1.8230630631        1.0357926963
 H         -8.5298800260       -3.7503391207        0.3316010926
 H         -6.5841321624       -4.0175762608       -1.1652221143
 H         -4.8875274990       -2.2376034952       -1.3180150220
 H         -7.2902308553        1.5001657129       -0.2985793422
 H         -7.2546978598        3.9392601062       -0.6401802195
 H         -5.1405689050        5.1751849457       -0.7143273768
 H         -2.9796883160        3.9915765195       -0.4807459344
 H         -1.0470066266        2.1528872853       -0.2015792847
 H          0.8788294490        2.2206356132        0.1214022694
 H          3.2914780787        2.3296587623        0.0902228386
 H          1.0190718212       -2.1085100574       -0.1363543077
 H          2.9370954796       -3.9917433387       -0.2540011511
 H          5.0859541736       -5.2168298709       -0.3316086071
 H          7.2153409882       -4.0114418661       -0.2069929652
 H          7.2769221661       -1.5542126847       -0.0371157322
 H          4.9710127595        1.9186434726        1.7930927522
 H          6.6858535709        3.6814141667        1.9388703210
 H          8.5747349185        3.7078960441        0.3486566367
 H          8.7251153767        1.9784606891       -1.4070842555
 H          6.9873158405        0.2435224851       -1.5864725187
 H         -0.8504166979       -2.1196513591        0.5267593683
 H         -3.2652633348       -2.2627910987        0.5098182551
 H         -7.0386243363        0.0545721907        1.5824060266
 H         -8.7559944385       -1.7058592715        1.6971975808
  62
  -94.7166286737000       0.218701249956621      !
 C         -7.7645307558       -2.8757052157       -0.8684739003
 C         -6.6239470749       -2.7642191541       -1.6514419162
 C         -5.6709634790       -1.8090871987       -1.3649577860
 C         -5.8490491598       -0.9467141424       -0.2797329219
 N         -4.8853933589        0.0221850497        0.0045252225
 C         -5.1334881579        1.3692729374        0.2246821525
 C         -6.3387423789        2.0538462222        0.2399561216
 C         -6.3023937601        3.4230160306        0.4598882064
 C         -5.1026656845        4.0947864885        0.6477804796
 C         -3.8919306508        3.4176881337        0.5997136336
 C         -3.9049111095        2.0514816327        0.3809676024
 C         -2.8612217333        1.0635708312        0.2383374974
 C         -1.4988214806        1.1351853214        0.2779640546
 C         -0.7093310022       -0.0555316688        0.1311129938
 C          0.6978270530       -0.0071071440        0.1023191783
 C          1.3955304655        1.2199465788       -0.2005380665
 C          2.7518382737        1.3064373697       -0.2791068103
 C          3.5175745176        0.1589380727       -0.0091732745
 C          2.8677742851       -1.0788356577        0.2866938924
 C          1.5061745314       -1.1712675738        0.3291810887
 C          3.9239968115       -2.0459097919        0.4726906837
 C          3.9324970560       -3.3885477435        0.8075453961
 C          5.1548131415       -4.0314879452        0.9450989336
 C          6.3468128858       -3.3427123981        0.7674311783
 C          6.3616912847       -1.9978162268        0.4288737321
 C          5.1421048600       -1.3597422169        0.2633118053
 N          4.8761904032       -0.0310447250       -0.0313729501
 C          5.8370625174        0.9452301449       -0.3011945616
 C          5.7769620605        2.1896933948        0.3299038828
 C          6.7233967101        3.1529932536        0.0463228576
 C          7.7406272319        2.8939869142       -0.8614290084
 C          7.8034255096        1.6576060683       -1.4883596769
 C          6.8605689310        0.6876665299       -1.2166855257
 C         -1.4286805188       -1.3019724605        0.0137897624
 C         -2.7861441948       -1.3722223067       -0.0575173355
 C         -3.5288036824       -0.1804860486        0.0163936964
 C         -6.9936554494       -1.0663448653        0.5118863605
 C         -7.9415382435       -2.0235102769        0.2123653549
 H         -8.5091165125       -3.6222285225       -1.0982660772
 H         -6.4834598914       -3.4215080983       -2.4969078040
 H         -4.7957973212       -1.7008084610       -1.9881687470
 H         -7.2768002629        1.5476932195        0.0722437530
 H         -7.2299297419        3.9758096148        0.4825078296
 H         -5.1124157771        5.1601746090        0.8232271707
 H         -2.9584391676        3.9444219339        0.7268925839
 H         -1.0188290394        2.0787998108        0.4797242648
 H          0.8117689157        2.0925609439       -0.4442891493
 H          3.2307092461        2.2312756847       -0.5649468557
 H          1.0453169566       -2.1136141674        0.5749165211
 H          3.0071101046       -3.9209214636        0.9662851854
 H          5.1810179998       -5.0789129890        1.2060427267
 H          7.2847215741       -3.8614647378        0.8995222995
 H          7.2945931069       -1.4673667287        0.3151062115
 H          5.0005940934        2.3788191649        1.0559637309
 H          6.6739630816        4.1117793272        0.5411486838
 H          8.4784447555        3.6505994982       -1.0798647770
 H          8.5879875043        1.4538962778       -2.2021908255
 H          6.8890013307       -0.2633250645       -1.7272443014
 H         -0.8648233257       -2.2165877306       -0.0670622110
 H         -3.2867528989       -2.3241093520       -0.1570339973
 H         -7.1154666154       -0.4242197756        1.3712251964
 H         -8.8229987987       -2.1129781279        0.8301098200
  62
  -94.7161877036000       0.137149882134214      !
 C         -7.6648025611       -2.8587634415        1.1423165613
 C         -6.6954225346       -3.1550379287        0.1945542739
 C         -5.7738037816       -2.2007194211       -0.1852276139
 C         -5.8099113603       -0.9282616877        0.3890874281
 N         -4.8653479730        0.0358952079        0.0316669478
 C         -5.1444430098        1.3525074663       -0.3014163911
 C         -6.3708577788        1.9817195678       -0.4486641743
 C         -6.3716367185        3.3123477026       -0.8402262656
 C         -5.1883531480        3.9951565702       -1.0864552130
 C         -3.9599660976        3.3607902932       -0.9643723401
 C         -3.9358591551        2.0323065527       -0.5770052472
 C         -2.8712624939        1.0753401370       -0.3882071962
 C         -1.5107789171        1.1698972199       -0.4659620129
 C         -0.6962504338        0.0152411495       -0.2220568188
 C          0.7112815639        0.0682918984       -0.2598643996
 C          1.4261697078        1.3140496476       -0.1177474781
 C          2.7815144615        1.3796217976       -0.0074862663
 C          3.5229406463        0.1866169089       -0.0778847240
 C          2.8615851371       -1.0499459955       -0.3564396357
 C          1.5002463807       -1.1190309135       -0.4239868656
 C          3.9083958773       -2.0338018452       -0.4994349713
 C          3.8999986120       -3.3909469946       -0.7698038719
 C          5.1104062666       -4.0695484034       -0.8024737838
 C          6.3036616053       -3.4092520483       -0.5465601497
 C          6.3349037612       -2.0489872946       -0.2738624828
 C          5.1318959966       -1.3607637130       -0.2767870424
 N          4.8780562330       -0.0199979810       -0.0221523418
 C          5.8251801461        0.9298699838        0.3620694405
 C          5.5786415814        1.7466484039        1.4695978052
 C          6.5152291830        2.6793443850        1.8626120400
 C          7.7082021047        2.8138833217        1.1656755621
 C          7.9527084369        2.0090909996        0.0618733440
 C          7.0214423870        1.0753059931       -0.3447388494
 C         -1.3797510369       -1.2072976121        0.1225566510
 C         -2.7329694970       -1.2927098958        0.2462050968
 C         -3.5076617834       -0.1530187653       -0.0298287412
 C         -6.7879460492       -0.6317030731        1.3416542814
 C         -7.7066914092       -1.5930059196        1.7094953652
 H         -8.3823505804       -3.6089185789        1.4372984183
 H         -6.6643930160       -4.1360643732       -0.2560699104
 H         -5.0357578696       -2.4200207538       -0.9422655957
 H         -7.2976089756        1.4543655050       -0.2816821798
 H         -7.3150714678        3.8239235787       -0.9608885852
 H         -5.2266755104        5.0309789788       -1.3890166459
 H         -3.0420804170        3.8881803668       -1.1754015225
 H         -1.0552917526        2.1033872021       -0.7531880065
 H          0.8588205508        2.2271957681       -0.0424814346
 H          3.2821625414        2.3283934335        0.1179345436
 H          1.0197951975       -2.0550903272       -0.6585140095
 H          2.9702243057       -3.9091145354       -0.9482411358
 H          5.1240080199       -5.1278857943       -1.0162106431
 H          7.2303554598       -3.9639512155       -0.5551282900
 H          7.2678872995       -1.5543470561       -0.0529644683
 H          4.6629535222        1.6179496230        2.0274178999
 H          6.3210894843        3.2996580201        2.7252587924
 H          8.4402155516        3.5422147042        1.4791511895
 H          8.8740020042        2.1192352068       -0.4910782852
 H          7.1969197249        0.4738955081       -1.2239670466
 H         -0.7846671676       -2.0719177147        0.3684129228
 H         -3.2010687321       -2.2102424925        0.5703924030
 H         -6.7981312702        0.3430582396        1.8059649168
 H         -8.4555398678       -1.3590170773        2.4519082615
  62
  -94.7161760394000       0.135467446160546      !
 C         -7.8069478765       -2.9540909836        0.2697242097
 C         -7.8996103034       -1.9938252134       -0.7275315750
 C         -6.9402525173       -1.0083471802       -0.8406002358
 C         -5.8705959959       -0.9692780884        0.0566460478
 N         -4.8948878787        0.0231140379       -0.0525715896
 C         -5.1388736350        1.3811762071       -0.1920408776
 C         -6.3458742442        2.0631349127       -0.2114476284
 C         -6.3065838182        3.4440403476       -0.3283188100
 C         -5.1026744680        4.1300385280       -0.4127902106
 C         -3.8923245868        3.4530085038       -0.3618778220
 C         -3.9081980567        2.0749009608       -0.2443804047
 C         -2.8671764781        1.0794266018       -0.1293337958
 C         -1.5053363564        1.1606847783       -0.1350133854
 C         -0.7019364035       -0.0292460401       -0.0227812556
 C          0.7034938104        0.0161776364       -0.0074268060
 C          1.4266584000        1.2689568543       -0.0317431377
 C          2.7841941493        1.3556505842       -0.0091133811
 C          3.5375033721        0.1703539268        0.0501183473
 C          2.8713384392       -1.0921020745        0.0364709375
 C          1.5097470980       -1.1771065084        0.0127546345
 C          3.9167399735       -2.0898333356        0.0309920394
 C          3.9072225157       -3.4730446257        0.0426098758
 C          5.1204411583       -4.1463316620        0.0676480184
 C          6.3212418095       -3.4502250617        0.0997129539
 C          6.3544025172       -2.0643926252        0.0887764439
 C          5.1447222184       -1.3892470887        0.0330332373
 N          4.8951679444       -0.0254702873        0.0427698906
 C          5.8654958868        0.9780707002        0.0682725630
 C          5.7632384752        2.0308540887        0.9801831731
 C          6.7190548029        3.0260997132        0.9948192888
 C          7.7867739034        2.9879884857        0.1095624546
 C          7.8906701856        1.9426807584       -0.7969406042
 C          6.9390938951        0.9436132661       -0.8242424642
 C         -1.4283760203       -1.2781336824        0.0536293593
 C         -2.7864272542       -1.3610200532        0.0571032821
 C         -3.5380588208       -0.1747927969       -0.0076709625
 C         -5.7796267409       -1.9368101689        1.0598453946
 C         -6.7424685514       -2.9202912775        1.1591239779
 H         -8.5580652721       -3.7245561208        0.3518986407
 H         -8.7212516757       -2.0213164896       -1.4278588015
 H         -6.9936873316       -0.2797354221       -1.6356489298
 H         -7.2877517078        1.5438079602       -0.1232840860
 H         -7.2346397961        3.9960080199       -0.3495512890
 H         -5.1097909274        5.2056589564       -0.5070013795
 H         -2.9569641738        3.9897881754       -0.4071601788
 H         -1.0438878107        2.1265651323       -0.2490909842
 H          0.8694339949        2.1892812844       -0.0722620953
 H          3.2757428861        2.3165100263       -0.0510581438
 H          1.0507128701       -2.1503812972       -0.0159978396
 H          2.9742830211       -4.0159054303        0.0377224792
 H          5.1326344528       -5.2260044907        0.0739025337
 H          7.2513528782       -3.9978004205        0.1379328252
 H          7.2931991611       -1.5342086005        0.1368063676
 H          4.9451535845        2.0438740332        1.6847040529
 H          6.6362449855        3.8350327212        1.7056776081
 H          8.5322232402        3.7681368667        0.1248573605
 H          8.7157063798        1.9126457806       -1.4932956391
 H          7.0022050748        0.1456630182       -1.5489570329
 H         -0.8731309034       -2.1988992146        0.1091590750
 H         -3.2789297699       -2.3215384890        0.0940992059
 H         -4.9649603877       -1.8914431444        1.7669212743
 H         -6.6679525364       -3.6634060591        1.9393925910
  62
  -94.7159843944000       0.110601495568969      !
 C         -7.7311310621       -2.9149443298       -0.8743450225
 C         -6.5833741221       -2.8144988578       -1.6480427580
 C         -5.6390487644       -1.8468855052       -1.3743151935
 C         -5.8335415261       -0.9610399541       -0.3114165731
 N         -4.8801866060        0.0216147279       -0.0391214625
 C         -5.1428353670        1.3707330295        0.1475642191
 C         -6.3536192912        2.0454294792        0.1249736529
 C         -6.3322598990        3.4191427256        0.3141519830
 C         -5.1414566035        4.1050280751        0.5089413573
 C         -3.9249304107        3.4370898730        0.4994187820
 C         -3.9229321665        2.0662671506        0.3120677415
 C         -2.8690526820        1.0835533309        0.2118639117
 C         -1.5086772679        1.1680413377        0.2833756535
 C         -0.7046656737       -0.0179507429        0.1769054562
 C          0.7019899741        0.0334927057        0.1867980724
 C          1.4127004708        1.2672986872       -0.0560504193
 C          2.7692749553        1.3420796107       -0.1374346458
 C          3.5225064031        0.1687949555        0.0449043662
 C          2.8648196868       -1.0550219154        0.3779363260
 C          1.5033229962       -1.1332402426        0.4337833447
 C          3.9162492060       -2.0194904833        0.6029565776
 C          3.9140680526       -3.3616280405        0.9389062029
 C          5.1298549449       -4.0226417357        1.0439047506
 C          6.3243509007       -3.3604024488        0.7968337802
 C          6.3498800073       -2.0155663151        0.4590926825
 C          5.1393522384       -1.3439974939        0.3864421003
 N          4.8808615694       -0.0231654992        0.0509033524
 C          5.8389123155        0.9283973120       -0.3027735885
 C          6.9755521843        1.1192725232        0.4862060406
 C          7.9180731834        2.0587846591        0.1211237767
 C          7.7430077590        2.8232969623       -1.0235557856
 C          6.6105540895        2.6410089490       -1.8046792740
 C          5.6633343224        1.7018566972       -1.4531338508
 C         -1.4125381647       -1.2709249634        0.0533873725
 C         -2.7675374434       -1.3547422453       -0.0436518205
 C         -3.5223346313       -0.1692277501        0.0000393501
 C         -6.9851127286       -1.0697202658        0.4714184496
 C         -7.9243100002       -2.0393710556        0.1847268068
 H         -8.4688095528       -3.6713860416       -1.0942111579
 H         -6.4303169815       -3.4904213222       -2.4764343893
 H         -4.7580805567       -1.7479874645       -1.9907462486
 H         -7.2842661884        1.5274503848       -0.0482979841
 H         -7.2642374139        3.9647183582        0.3065921496
 H         -5.1628958381        5.1741006456        0.6586158946
 H         -2.9982916491        3.9745632386        0.6313595977
 H         -1.0452432147        2.1211038794        0.4779160243
 H          0.8417089936        2.1658820661       -0.2220784488
 H          3.2608493425        2.2848952983       -0.3271598961
 H          1.0359583182       -2.0603223530        0.7217760039
 H          2.9848388631       -3.8828706338        1.1116393307
 H          5.1479954488       -5.0689311113        1.3099155325
 H          7.2560121303       -3.9023009582        0.8652298314
 H          7.2838116568       -1.5186051590        0.2465952844
 H          7.0950764872        0.5469995254        1.3938527431
 H          8.7928785112        2.2042104473        0.7376096773
 H          8.4829062454        3.5570932820       -1.3041000121
 H          6.4716288297        3.2301052306       -2.6991784934
 H          4.7948124513        1.5379536096       -2.0733558123
 H         -0.8397727777       -2.1815305024       -0.0068599652
 H         -3.2570236755       -2.3125923230       -0.1411112660
 H         -7.1193441778       -0.4086991569        1.3144070483
 H         -8.8110557855       -2.1204694338        0.7960168889
  62
  -94.7158760716000       9.862324488276959E-002 !
 C         -7.6761214494       -3.0387156312       -0.0005820244
 C         -6.4377556272       -3.2167261866       -0.6017929406
 C         -5.4996310664       -2.2058425395       -0.5819845238
 C         -5.7907346446       -0.9933480611        0.0492008976
 N         -4.8429275371        0.0300342837        0.0694578710
 C         -5.0791926957        1.3569997161       -0.2620949400
 C         -6.2504585089        1.9657074885       -0.6847536439
 C         -6.2003822750        3.3155617537       -1.0028565083
 C         -5.0194148369        4.0379243868       -0.9115054485
 C         -3.8378122256        3.4244424716       -0.5184436816
 C         -3.8646087355        2.0778161170       -0.2006604982
 C         -2.8395778971        1.1323675262        0.1724191092
 C         -1.4899967110        1.2437642077        0.3431588474
 C         -0.7084303993        0.0751537732        0.6265683581
 C          0.6990833037        0.0980782244        0.5893366303
 C          1.4476288248        1.3298128893        0.6612253049
 C          2.8015070618        1.3854179347        0.5222546558
 C          3.5047897319        0.1919783169        0.2888419831
 C          2.8006531249       -1.0497620317        0.2093726455
 C          1.4480786478       -1.1069734345        0.3839341349
 C          3.7912967630       -2.0481074410       -0.1148758644
 C          3.7287256976       -3.4163498521       -0.3125257391
 C          4.9013779979       -4.0991898339       -0.6042392011
 C          6.1155668158       -3.4310784510       -0.6799123351
 C          6.2008780693       -2.0599789558       -0.4864518910
 C          5.0271494419       -1.3709265595       -0.2238709524
 N          4.8347852345       -0.0209738439        0.0274587997
 C          5.8341047943        0.9547470747        0.0239214016
 C          5.9450415761        1.8502334025        1.0898256341
 C          6.9298089445        2.8167632499        1.0782310620
 C          7.8137565423        2.9065718115        0.0123637001
 C          7.7042329982        2.0185880931       -1.0483815105
 C          6.7229032613        1.0485197316       -1.0491657205
 C         -1.4337544139       -1.1462204340        0.8942801470
 C         -2.7841864825       -1.2504838896        0.7630224500
 C         -3.5045787988       -0.1247552513        0.3271946945
 C         -7.0351536193       -0.8196753422        0.6607381335
 C         -7.9669262888       -1.8367619600        0.6290481043
 H         -8.4082155404       -3.8312231274       -0.0217602545
 H         -6.2080566574       -4.1483248617       -1.0977259529
 H         -4.5469861483       -2.3304964362       -1.0746383785
 H         -7.1702558820        1.4107059690       -0.7854492500
 H         -7.1014724673        3.8100706987       -1.3341684157
 H         -5.0177104827        5.0876318687       -1.1645126729
 H         -2.9144518336        3.9812322872       -0.4710802229
 H         -1.0099258463        2.1967027785        0.1943889308
 H          0.9136596420        2.2439746967        0.8636818521
 H          3.3239429643        2.3292481668        0.5741636423
 H          0.9350516395       -2.0487679464        0.2789127182
 H          2.7874947298       -3.9393263839       -0.2383479619
 H          4.8716986551       -5.1664667347       -0.7654450417
 H          7.0160135362       -3.9887315339       -0.8909318225
 H          7.1531786739       -1.5540192956       -0.5285740464
 H          5.2701698790        1.7617713413        1.9280945442
 H          7.0141211528        3.5030464353        1.9079815140
 H          8.5814053692        3.6650426874        0.0070663235
 H          8.3838015114        2.0910154987       -1.8847529708
 H          6.6174548675        0.3745644739       -1.8862220818
 H         -0.8819515641       -1.9949655731        1.2653631234
 H         -3.2968036228       -2.1700871593        1.0046324309
 H         -7.2480532697        0.1029569243        1.1793605796
 H         -8.9255429654       -1.6967850061        1.1065152184
