58
 energy: -102.232908763976 gnorm: 0.000053715284 xtb: 6.7.1 (edcfbbe)
F            5.22268512511263        2.49488334118367       -2.49640603721225
B            5.08718216324736        2.39004243882294       -1.13287317219643
F            5.18430639737530        3.62115740063729       -0.54024402696392
O            6.09434204046450        1.48036183767329       -0.59104353501164
C            5.82522178022709        0.32090555005553       -0.05830343915926
C            7.00158263066433       -0.46421465850780        0.34635623039267
C            6.93972746661471       -1.43523966274377        1.34562864262914
C            8.07151380595846       -2.14856497896552        1.69242994283596
C            9.27537493802419       -1.90722823364003        1.04956972781660
C            9.34801046003645       -0.93747536629071        0.06255707743223
C            8.22194230666894       -0.21649346762701       -0.28385558984418
C            4.54350609225163       -0.15301956838305        0.10266692820626
C            3.42752700766914        0.61622249179133       -0.28417138685240
C            2.09995324491613        0.18671065089011       -0.10666316878257
C            1.06292378139964        1.01613280776669       -0.49201653618784
C           -0.34970309499705        0.68483064173872       -0.34333286939703
C           -1.30072680371170        1.47015332282978       -1.00323369377570
C           -2.64535104424701        1.19702448723899       -0.89090667041687
C           -3.08173537523831        0.12722459028352       -0.10876415215114
N           -4.45166733118010       -0.15454077031601        0.01475396295480
C           -5.33289466097493        0.79997898160998        0.53722251615618
C           -4.90026996232129        2.03338611592062        1.00877812427430
C           -5.80028000649766        2.95245452393627        1.52558996802966
C           -7.14559591664989        2.65094830849459        1.59313137974581
C           -7.58854204641622        1.40965672361946        1.16338130209675
C           -6.69419571542345        0.48809651118232        0.64972766747186
O           -7.20437341408990       -0.73202490740515        0.28586533447508
C           -6.32974802281654       -1.65921811695447       -0.21895270540624
C           -6.86173395905205       -2.87907310355603       -0.59565548942012
C           -6.05008668383327       -3.85534960042744       -1.15244987617752
C           -4.70950628441502       -3.59244098426004       -1.34981320687846
C           -4.17083815851105       -2.37246624103067       -0.97113681865337
C           -4.96196473558343       -1.39791849795855       -0.37501292957033
C           -2.13956099401201       -0.65727925966107        0.55691547363872
C           -0.79436546230947       -0.38199733472175        0.44207304229324
N            1.33179183227896        2.22140985429197       -1.05624502652689
C            2.56872826782670        2.56533774722461       -1.20843072193496
N            3.62911080091702        1.83390188653991       -0.84863089912880
H            6.01558689242818       -1.61478486739606        1.87284915038873
H            8.01673332858514       -2.89413916996950        2.47188579675913
H           10.15555933670809       -2.46983443885064        1.32299126251373
H           10.28566282955427       -0.74208192993162       -0.43573158022482
H            8.26390697326937        0.54288025094722       -1.04907954009615
H            4.36721392671720       -1.12897868015980        0.51808705812829
H            1.93001455983127       -0.78686555374951        0.32116241682853
H           -0.95380820778467        2.28977589608817       -1.61161604850005
H           -3.37084801325897        1.80012030939230       -1.41616941702742
H           -3.85005971993022        2.27727470140516        0.98317063149065
H           -5.43524055684142        3.90448965568762        1.87843330011138
H           -7.85046885437086        3.36469867078634        1.98887565856832
H           -8.62829333873620        1.13091333851491        1.22428693075694
H           -7.91771296623754       -3.04089617559033       -0.45013379165077
H           -6.47291665671687       -4.80476955382423       -1.44011551009827
H           -4.06917233393913       -4.33178450549574       -1.80556032692112
H           -3.12628217155382       -2.17423790347989       -1.15281801877379
H           -2.47633483380802       -1.47373642683736        1.17863419134824
H           -0.09134392734870       -0.98741894192719        0.99252819067656
H            2.78551326406702        3.52310186310052       -1.66018472308752
