58
 energy: -102.232944116826 gnorm: 0.000118051426 xtb: 6.7.1 (edcfbbe)
F            5.20003236395730        2.37854102804763       -1.98467323475139
B            5.02817119385231        1.96201517003167       -0.69125895511747
F            5.17223104753199        3.01365618724840        0.18165629182786
O            5.97617429890153        0.89857116390701       -0.36609713981558
C            5.63563695093881       -0.26801956542545        0.10704201036232
C            6.76107140351603       -1.15057936427833        0.45118091198956
C            6.63571483580915       -2.53936413047704        0.48041888878071
C            7.72147134872211       -3.32830783465881        0.81020114406258
C            8.94182597625940       -2.74718289902601        1.11645749070907
C            9.07777236437176       -1.36873620137943        1.08042455808782
C            7.99813106986838       -0.57512388458811        0.74517454552299
C            4.32698309070375       -0.65103934011838        0.29172119110189
C            3.26104282067042        0.20477837026801       -0.05192717322900
C            1.90904959750595       -0.15789966564743        0.08621822241965
C            0.92672651802260        0.74306136417633       -0.28077724283799
C           -0.50352251414641        0.47922635380361       -0.17221701285363
C           -1.39647583014391        1.28909505194271       -0.88094984965517
C           -2.75421007779896        1.07099720203352       -0.81423969353528
C           -3.26159502864308        0.03669659900290       -0.02706112735683
N           -4.64511433703959       -0.19088169769333        0.04633423070053
C           -5.51049362281503        0.81037948199641        0.50405583966689
C           -5.05073644606626        2.03752765904108        0.96615832493249
C           -5.93595927261410        3.00453243515392        1.41682728645526
C           -7.29410671499749        2.75824331818273        1.42694438004014
C           -7.76638430219240        1.52441912014348        1.00703060767029
C           -6.88702415063062        0.55528616225939        0.55934585139159
O           -7.42861558704009       -0.65304517675737        0.20154800882013
C           -6.56933254739893       -1.62753067424214       -0.23585062281600
C           -7.13214096354721       -2.83614162081287       -0.60402802830311
C           -6.33591551738295       -3.85892794962034       -1.09566033495310
C           -4.97830858420801       -3.65390223761081       -1.23727909990759
C           -4.40896282166602       -2.44540921941474       -0.86678290327492
C           -5.18641902161395       -1.42404667451073       -0.33433023609243
C           -2.37721644965723       -0.76681235320146        0.69317359903409
C           -1.01849572186883       -0.54911972980327        0.62106184746800
N            1.26943951028555        1.95175966956102       -0.79444614386440
C            2.52602953879208        2.23731694813195       -0.90162355505572
N            3.53796033487425        1.43706892321018       -0.54899507989247
H            5.69910660533663       -3.00647507149788        0.21815272211204
H            7.61773876489237       -4.40321368678245        0.82437048927026
H            9.78569217254687       -3.36879150257049        1.37630025535257
H           10.02858950476503       -0.91277861071300        1.31217419510702
H            8.08962512774974        0.49932415989467        0.71143165504806
H            4.09029353937826       -1.61089418764292        0.71454900470949
H            1.67602960361364       -1.13970678048440        0.46276793039601
H           -0.99477080216920        2.08131871734150       -1.49201591615400
H           -3.43502002431518        1.68972576558733       -1.37959405550434
H           -3.99144864636611        2.23905025324991        0.98523129605728
H           -5.54945992279959        3.95025751770344        1.76371698550160
H           -7.98725589297364        3.50937485893031        1.77079897642301
H           -8.81827745167562        1.28843513239727        1.02483019217911
H           -8.19935466081722       -2.95223938694400       -0.50388044753573
H           -6.78288697073239       -4.79911622718594       -1.37708601704881
H           -4.34807766172133       -4.43035182862582       -1.64264830727108
H           -3.35014641786026       -2.29337376035074       -1.00509635369602
H           -2.76955573019351       -1.55226905457474        1.32217469912913
H           -0.35920076575891       -1.16505427806577        1.21276072481742
H            2.80304160607727        3.20050935991960       -1.30649136935227
