58
 energy: -102.165556863220 gnorm: 0.000064545877 xtb: 6.7.1 (edcfbbe)
F            5.22141349287199        2.17534536670776       -2.34896316280338
B            5.01043519540325        1.78219241365325       -1.05323532790055
F            5.16075014548285        2.85725180613328       -0.19495414952554
O            5.96429774110357        0.72793420506410       -0.69289176436308
C            5.64885914471322       -0.28906673948808        0.07799975956898
C            6.76944784754595       -1.08986463705826        0.55332982136492
C            6.61356201563948       -2.36244509201388        1.11821842659304
C            7.71313046157062       -3.07483252019550        1.55085592834561
C            8.98916080182550       -2.54323740795921        1.43252435033709
C            9.15911657692133       -1.28761615486956        0.86692078947142
C            8.06633700117949       -0.57038815927436        0.42986708478393
C            4.32912326088313       -0.57782334827566        0.40861167465423
C            3.25105738792967        0.17407728404405       -0.10427295079018
C            1.92178724952506       -0.14215411335483        0.13392303828269
C            0.89791614897759        0.61812886836433       -0.45700514439002
C           -0.49891805151701        0.38220702712215       -0.29573689363631
C           -1.41851266558739        1.22250413795119       -0.96650273091908
C           -2.76997661368088        1.04174896688114       -0.84806564055252
C           -3.27223259353411        0.00312481492638       -0.05425844383566
N           -4.66794883540115       -0.19507236539672        0.06527360178623
C           -5.46717418624784        0.76978398183421        0.65837112274938
C           -4.93918479529245        1.94324539082704        1.19680404406778
C           -5.76814287120653        2.88512973911938        1.77549677839559
C           -7.13682934421973        2.67502945509355        1.83953603923563
C           -7.67693257439725        1.50364720612411        1.33802494161642
C           -6.85363710413781        0.55233394077101        0.75736733338464
O           -7.44186876331043       -0.59455590516608        0.30913598934999
C           -6.64336823981872       -1.53716083960317       -0.26983977565424
C           -7.25474814722544       -2.69187315542624       -0.73135607571541
C           -6.50371098486761       -3.67250920899147       -1.35557661923110
C           -5.14161308229837       -3.48750313814669       -1.53403933084154
C           -4.52254153114987       -2.34079127550631       -1.07477637771088
C           -5.25609969935668       -1.35428472084618       -0.41568739338340
C           -2.38284115868073       -0.84053455974554        0.61718281620571
C           -1.02834025746643       -0.65435688165890        0.50412399254070
N            1.26438580967748        1.67730131479663       -1.26043507308880
C            2.50787852590483        1.94612350501778       -1.43310510243271
N            3.54022860748707        1.26520983574086       -0.91082034637529
H            5.63455753810631       -2.80791876698492        1.20057938170741
H            7.57831285125029       -4.05685399804341        1.98088075916949
H            9.84436256299007       -3.10639594583186        1.77527307144862
H           10.15032914699397       -0.87005123085715        0.76928941533910
H            8.18462554105115        0.40809798878815       -0.00830483375344
H            4.09789529627677       -1.39768646542029        1.06589610163808
H            1.69790137645291       -0.98368285931623        0.76887275591941
H           -1.01608442408290        2.00814682105049       -1.58547776449236
H           -3.46091469653583        1.68101477219590       -1.37867934809992
H           -3.87420465090264        2.10663270390871        1.16335629746451
H           -5.33901104330550        3.78715570222255        2.18220948291385
H           -7.78220034389485        3.41314836920964        2.28795074937208
H           -8.73454426655995        1.30151047950040        1.38983250108659
H           -8.31899444252333       -2.79637423679542       -0.59532147625292
H           -6.98406246457473       -4.56990904086998       -1.71104013348604
H           -4.55463765284270       -4.23851392890626       -2.03882290978894
H           -3.46580687645631       -2.19571847154747       -1.23080304425650
H           -2.77640452661354       -1.63039919698097        1.24140076438866
H           -0.36778686866570       -1.31171347524102        1.04636481130878
H            2.77143779286388        2.78816474238458       -2.05821061786931
