  80
       -125.46399181
 C          8.0258611190       -4.7321464725        0.1125757966
 C          6.6391755699       -4.7696767602        0.0805275319
 C          5.9135327488       -3.5968033613        0.0495125954
 C          6.5711405053       -2.3654532529        0.0494581875
 C          5.8100276325       -1.1232705964        0.0167135442
 N          6.4927974012        0.0388629685       -0.0011071155
 C          5.7595488458        1.1702832269       -0.0342535924
 C          6.4666404846        2.4441280185       -0.0493766139
 C          5.7579158175        3.6467283631       -0.0429636773
 C          6.4342428373        4.8492345934       -0.0519307672
 C          7.8214551229        4.8704513282       -0.0681894339
 C          8.5311689729        3.6792575082       -0.0760782250
 C          7.8618458914        2.4721161219       -0.0662003981
 N          4.4531479934        1.1662822479       -0.0523376123
 C          3.7976220856       -0.0206245296       -0.0260362613
 C          2.3812266379       -0.0513324591       -0.0304864754
 C          1.6317398593        1.1447534750       -0.0718220950
 C          0.2618372033        1.1135060520       -0.0665559130
 C         -0.4132830076       -0.1095984106       -0.0203612439
 N         -1.8371388670       -0.1315976296       -0.0049120658
 C         -2.4941979994        0.1005555473        1.1851838833
 C         -1.7617697811        0.2820554555        2.3662457427
 C         -2.4036126424        0.5161377725        3.5620919685
 C         -3.7891194856        0.5727087036        3.6132766606
 C         -4.5202148778        0.3851875999        2.4550354129
 C         -3.8936902376        0.1460882702        1.2413396646
 C         -4.7380709170       -0.0450274779        0.0093175225
 C         -5.8158014012       -1.0861373348        0.2488710735
 C         -5.6547955761       -2.4242777044        0.5300385066
 C         -6.7902578900       -3.2025423524        0.7137133031
 C         -8.0559940051       -2.6446703254        0.6173325365
 C         -8.2211973435       -1.2979284249        0.3346366472
 C         -7.0927255336       -0.5166488452        0.1491476197
 C         -6.9454207640        0.8979422384       -0.1586746515
 C         -7.8887717854        1.8922023312       -0.3580881544
 C         -7.4498033999        3.1744377971       -0.6478517671
 C         -6.0961860440        3.4609145508       -0.7376951206
 C         -5.1451590713        2.4688805613       -0.5373747544
 C         -5.5788359619        1.1946091933       -0.2486514840
 C         -3.9209489501       -0.3819949575       -1.2094468242
 C         -4.5756326617       -0.6588024239       -2.4000344346
 C         -3.8710354428       -0.9410171599       -3.5554245433
 C         -2.4837213921       -0.9354911552       -3.5266541221
 C         -1.8141201600       -0.6619801526       -2.3546105482
 C         -2.5198653370       -0.3909962654       -1.1744819989
 C          0.3121646267       -1.3038310900        0.0181154813
 C          1.6824504425       -1.2777528802        0.0120273961
 N          4.5043874141       -1.1776055297        0.0096452322
 C          7.9658455283       -2.3342752779        0.0817353717
 C          8.6848942484       -3.5122608396        0.1134614540
 H          8.5908312498       -5.6524853191        0.1368568624
 H          6.1263697476       -5.7207122147        0.0810614502
 H          4.8348886700       -3.6093663266        0.0249102394
 H          4.6794972129        3.6147150943       -0.0289691612
 H          5.8819385449        5.7779132544       -0.0456079456
 H          8.3476006934        5.8137751231       -0.0744144202
 H          9.6113816191        3.6960492672       -0.0888508578
 H          8.3990325755        1.5363820503       -0.0710816431
 H          2.1659421259        2.0807762488       -0.1091293053
 H         -0.3128844477        2.0282673431       -0.0979669593
 H         -0.6851884791        0.2326856385        2.3317205586
 H         -1.8212840267        0.6535058805        4.4604682345
 H         -4.2939472704        0.7582881641        4.5484983008
 H         -5.5990190685        0.4234891657        2.4853646155
 H         -4.6686082071       -2.8588039868        0.6053825120
 H         -6.6858986083       -4.2545583316        0.9337005323
 H         -8.9247792461       -3.2692839689        0.7641005659
 H         -9.2091501523       -0.8684461463        0.2604208378
 H         -8.9442014884        1.6743496557       -0.2899694566
 H         -8.1715118489        3.9619999187       -0.8070479658
 H         -5.7772948485        4.4669336830       -0.9664618802
 H         -4.0906552814        2.6926651949       -0.6077513957
 H         -5.6553964587       -0.6482206905       -2.4146926951
 H         -4.3975117392       -1.1566304413       -4.4720935564
 H         -1.9216727622       -1.1444568264       -4.4241281198
 H         -0.7360730405       -0.6525935156       -2.3380038763
 H         -0.2234831715       -2.2418017320        0.0556992942
 H          2.2547907472       -2.1911405477        0.0451874294
 H          8.4638825125       -1.3771802753        0.0813001004
 H          9.7647234388       -3.4835569800        0.1369856005
  80
       -125.46388614
 C          7.6441061120       -4.9775185854        0.6332462066
 C          6.2586024434       -4.9056031377        0.6629085724
 C          5.6231662999       -3.6898716141        0.5145343545
 C          6.3716313524       -2.5257776636        0.3333796134
 C          5.7065931134       -1.2383649879        0.1735074578
 N          6.4750975340       -0.1449599192        0.0052710964
 C          5.8301023022        1.0311364309       -0.1443086987
 C          6.6314629770        2.2324923827       -0.3314925860
 C          8.0249815563        2.1519777494       -0.3412910319
 C          8.7841609894        3.2908346925       -0.5193995689
 C          8.1671634805        4.5209306825       -0.6901444257
 C          6.7822088590        4.6076176333       -0.6816203703
 C          6.0163863690        3.4740420788       -0.5037841178
 N          4.5271459735        1.1286661327       -0.1278425198
 C          3.7841155309        0.0086439187        0.0426064405
 C          2.3693473171        0.0848434449        0.0538375638
 C          1.7074895470        1.3207093679       -0.1159139867
 C          0.3386027562        1.3874683591       -0.1212962014
 C         -0.4216225504        0.2260247658        0.0438548810
 N         -1.8450029062        0.2846328228        0.0207851048
 C         -2.5311821520        0.4040676146        1.2103438102
 C         -1.8276421528        0.5642169818        2.4113503693
 C         -2.5002930321        0.6969823519        3.6060022897
 C         -3.8873930089        0.6747444823        3.6339513381
 C         -4.5898151904        0.5142475886        2.4537165910
 C         -3.9323558436        0.3799472583        1.2406274471
 C         -4.7369718883        0.1567202957       -0.0124053241
 C         -5.4273345857       -1.1975225663        0.0567471622
 C         -4.8466543569       -2.4428332484        0.1395721036
 C         -5.6755236899       -3.5558701712        0.1909013414
 C         -7.0544807654       -3.4151166107        0.1592185559
 C         -7.6409553099       -2.1622173504        0.0756736066
 C         -6.8198642921       -1.0480195600        0.0243122528
 C         -7.1313964594        0.3705307790       -0.0649266013
 C         -8.3445247794        1.0359081169       -0.1264290933
 C         -8.3383096553        2.4194769401       -0.2091003565
 C         -7.1457499501        3.1265049603       -0.2297909286
 C         -5.9259931261        2.4650780209       -0.1684040325
 C         -5.9284307381        1.0904709215       -0.0865194954
 C         -3.8966279696        0.2296312600       -1.2600519888
 C         -4.5202779138        0.2143616050       -2.4981398115
 C         -3.7854981391        0.2210815240       -3.6694454617
 C         -2.3995409836        0.2308189214       -3.6059113905
 C         -1.7601770303        0.2452782769       -2.3859698666
 C         -2.4966066086        0.2530954821       -1.1939923452
 C          0.2162472234       -1.0040282839        0.2233822741
 C          1.5848616378       -1.0759354025        0.2288846528
 N          4.4010522949       -1.1908324529        0.1952234340
 C          7.7644697244       -2.6047470389        0.3041452201
 C          8.3929200763       -3.8246713847        0.4531918951
 H          8.1383996579       -5.9309116001        0.7491846727
 H          5.6755445212       -5.8046332987        0.8027910767
 H          4.5466309007       -3.6179433988        0.5353132321
 H          8.4895708303        1.1875388113       -0.2071078529
 H          9.8625119701        3.2237366130       -0.5258747246
 H          8.7635086008        5.4106547582       -0.8296337785
 H          6.3023299957        5.5664038718       -0.8151433281
 H          4.9386581505        3.5257437918       -0.4955590450
 H          2.3071110151        2.2080790021       -0.2430535635
 H         -0.1696796152        2.3320956483       -0.2538925360
 H         -0.7495990009        0.5852628216        2.3909109882
 H         -1.9410892381        0.8197070619        4.5210664157
 H         -4.4162679355        0.7784653834        4.5685853542
 H         -5.6693460790        0.4890614881        2.4671581667
 H         -3.7723362436       -2.5533942510        0.1636962359
 H         -5.2406350727       -4.5421293889        0.2560267963
 H         -7.6794900433       -4.2950266831        0.1999534977
 H         -8.7154909261       -2.0583784012        0.0510154677
 H         -9.2758276379        0.4896167302       -0.1108300625
 H         -9.2749625972        2.9550133997       -0.2583695963
 H         -7.1652212126        4.2041999553       -0.2946797409
 H         -4.9970552812        3.0163123831       -0.1847603184
 H         -5.5992022450        0.1926296065       -2.5381461941
 H         -4.2882994022        0.2109506082       -4.6239424576
 H         -1.8145633559        0.2263960311       -4.5130341003
 H         -0.6828992531        0.2503109543       -2.3404337357
 H         -0.3849029203       -1.8926829476        0.3537052287
 H          2.0909334430       -2.0188254405        0.3623441986
 H          8.3325937818       -1.6985119665        0.1627522477
 H          9.4716089694       -3.8814535317        0.4292353819
  80
       -125.46380226
 C          7.6437618198       -4.8541773397        1.2435291592
 C          6.2596500596       -4.7702477948        1.2912311976
 C          5.6248610658       -3.5849715093        0.9818848537
 C          6.3726127737       -2.4633134362        0.6200517687
 C          5.7081109169       -1.2075114358        0.2943270166
 N          6.4778460694       -0.1395946827        0.0051486009
 C          5.8325463377        1.0081906024       -0.2873083575
 C          6.6346250434        2.1786834273       -0.6184167091
 C          6.0193275766        3.3786204607       -0.9790985916
 C          6.7850116268        4.4815809665       -1.2963668251
 C          8.1698899939        4.4050205604       -1.2577776689
 C          8.7870434404        3.2162301543       -0.8993248808
 C          8.0279167932        2.1079346973       -0.5817210638
 N          4.5297841615        1.1090262183       -0.2831128040
 C          3.7860269075        0.0125918849        0.0047864038
 C          2.3716508288        0.0894075329        0.0054899289
 C          1.7095736212        1.3099668849       -0.2535903811
 C          0.3411112279        1.3797449625       -0.2507771178
 C         -0.4217845035        0.2349016418        0.0022465945
 N         -1.8425428541        0.2956765297        0.0048389757
 C         -2.5082686501        0.2322436982        1.2124789477
 C         -1.7862603206        0.2439035672        2.4136874895
 C         -2.4367687700        0.1760528387        3.6258963288
 C         -3.8214045992        0.1019808446        3.6740831038
 C         -4.5432470054        0.1076806866        2.4949690401
 C         -3.9076542190        0.1775000803        1.2647259438
 C         -4.7368050525        0.1531316868        0.0086080268
 C         -5.4246500192       -1.1971013580       -0.1287811261
 C         -4.8412266029       -2.4361919772       -0.2671961010
 C         -5.6679373683       -3.5464348936       -0.3787536157
 C         -7.0473731446       -3.4089694177       -0.3515355536
 C         -7.6365346704       -2.1622028424       -0.2130033741
 C         -6.8176035566       -1.0507801542       -0.1016734690
 C         -7.1318817350        0.3619246332        0.0496742300
 C         -8.3466004768        1.0223048067        0.1306366294
 C         -8.3434040428        2.4007082737        0.2762525677
 C         -7.1521493465        3.1074147524        0.3400700730
 C         -5.9307726681        2.4509555627        0.2594023655
 C         -5.9301785276        1.0815582105        0.1142438178
 C         -3.9216393302        0.4252513322       -1.2275741982
 C         -4.5738911818        0.5961059897       -2.4390214416
 C         -3.8671345686        0.7649557301       -3.6152202932
 C         -2.4804360329        0.7392766425       -3.5855320737
 C         -1.8131712011        0.5724419705       -2.3920404532
 C         -2.5199660660        0.4331728864       -1.1899229144
 C          0.2180655651       -0.9811875901        0.2631633692
 C          1.5858636839       -1.0547382732        0.2673372666
 N          4.4024537307       -1.1618586993        0.2907670783
 C          7.7643060740       -2.5536510372        0.5748193317
 C          8.3921104017       -3.7434829701        0.8844746471
 H          8.1373625938       -5.7838883671        1.4859019353
 H          5.6773104060       -5.6359296082        1.5721383237
 H          4.5494092754       -3.5039601977        1.0154187749
 H          4.9413715658        3.4221751886       -1.0067767900
 H          6.3048608460        5.4078916451       -1.5774552804
 H          8.7661059476        5.2705054666       -1.5071858568
 H          9.8652967520        3.1570381409       -0.8692208039
 H          8.4926237666        1.1757704941       -0.3006819041
 H          2.3093646174        2.1858590002       -0.4438935689
 H         -0.1650352380        2.3165033719       -0.4370133668
 H         -0.7106456413        0.3118370668        2.3826316886
 H         -1.8614541772        0.1831284045        4.5391766756
 H         -4.3330081155        0.0447409881        4.6222270348
 H         -5.6215508542        0.0561526802        2.5219197697
 H         -3.7665848119       -2.5438385784       -0.2907416419
 H         -5.2309135488       -4.5277687261       -0.4886726410
 H         -7.6706305600       -4.2865408479       -0.4403695330
 H         -8.7113898178       -2.0607727795       -0.1934545370
 H         -9.2767883457        0.4760985544        0.0817743419
 H         -9.2813258942        2.9322743378        0.3416436991
 H         -7.1739243718        4.1809947292        0.4542037134
 H         -5.0030097819        3.0020690669        0.3102020528
 H         -5.6536111492        0.5875355872       -2.4546880303
 H         -4.3917185965        0.8999037920       -4.5482459327
 H         -1.9158728602        0.8465334130       -4.4992889919
 H         -0.7357283436        0.5426515706       -2.3793239829
 H         -0.3832423003       -1.8578155182        0.4587113431
 H          2.0911924893       -1.9871331430        0.4628369925
 H          8.3319946234       -1.6804966191        0.2931221807
 H          9.4697862207       -3.8093491509        0.8473505151
  80
       -125.46362553
 C          7.4082258836       -5.1056664935        0.6007854372
 C          6.0265367273       -4.9792929486        0.6034320516
 C          5.4427100210       -3.7374672158        0.4611490438
 C          6.2396262522       -2.6009208913        0.3137507734
 C          5.6279506292       -1.2871620904        0.1617858972
 N          6.4390612463       -0.2191875267        0.0243219457
 C          5.8394094828        0.9806602116       -0.1177233884
 C          6.6875434202        2.1557913839       -0.2673834323
 C          6.1208545156        3.4213673329       -0.4279767355
 C          6.9301013678        4.5299683054       -0.5674250610
 C          8.3107575607        4.3937995895       -0.5487795506
 C          8.8797480433        3.1393663061       -0.3902013694
 C          8.0768336936        2.0253009295       -0.2507020153
 N          4.5408026867        1.1273777259       -0.1248896959
 C          3.7544601401        0.0320922702        0.0174770728
 C          2.3432311847        0.1567798564        0.0132219293
 C          1.7228402308        1.4149175121       -0.1488060939
 C          0.3566839574        1.5261897426       -0.1598585318
 C         -0.4416340300        0.3885472699       -0.0084586741
 N         -1.8627641176        0.4844747986       -0.0271006332
 C         -2.5409023048        0.6447426506        1.1626721505
 C         -1.8325718557        0.8847042928        2.3467326901
 C         -2.5009344658        1.0699341663        3.5371472177
 C         -3.8868490689        1.0204041889        3.5760268350
 C         -4.5939019911        0.7732361542        2.4130628882
 C         -3.9411182195        0.5853379265        1.2051491245
 C         -4.7324073375        0.2329642472       -0.0269851040
 C         -5.2067383090       -1.2104601947        0.0825809501
 C         -4.4425929140       -2.3514508799        0.1769422564
 C         -5.0919613592       -3.5754375239        0.2690172174
 C         -6.4766462687       -3.6453340622        0.2658087742
 C         -7.2474376054       -2.4975869680        0.1704913695
 C         -6.6059014903       -1.2735565637        0.0783238573
 C         -7.1304948678        0.0790019958       -0.0321137537
 C         -8.4318207492        0.5507140765       -0.0801257182
 C         -8.6381275209        1.9168531343       -0.1905229005
 C         -7.5676378266        2.7961326437       -0.2516524206
 C         -6.2604406918        2.3292840243       -0.2038715561
 C         -6.0512859656        0.9722416508       -0.0944295006
 C         -3.9236745746        0.3902882572       -1.2879462971
 C         -4.5605482193        0.3861891487       -2.5188127806
 C         -3.8382073950        0.4428993624       -3.6970694347
 C         -2.4525666229        0.4882569453       -3.6483949184
 C         -1.7998152180        0.4923144762       -2.4351413722
 C         -2.5237801694        0.4534329283       -1.2369176052
 C          0.1553797205       -0.8631880124        0.1593587588
 C          1.5206349395       -0.9798399026        0.1698121603
 N          4.3251767728       -1.1897664264        0.1623301719
 C          7.6286637609       -2.7344877655        0.3119515830
 C          8.2053157556       -3.9805060172        0.4547378807
 H          7.8619162413       -6.0795292111        0.7119655851
 H          5.4058364834       -5.8563466498        0.7173181926
 H          4.3696989224       -3.6237005203        0.4612466607
 H          5.0455415299        3.5117312965       -0.4402075981
 H          6.4875455669        5.5076844862       -0.6915996066
 H          8.9412128403        5.2640229621       -0.6579014306
 H          9.9551064363        3.0333936031       -0.3760142508
 H          8.5039834544        1.0425222094       -0.1266454580
 H          2.3515962174        2.2835496089       -0.2648242439
 H         -0.1199657600        2.4881804235       -0.2853278229
 H         -0.7553345328        0.9266218832        2.3169174751
 H         -1.9390625166        1.2554125543        4.4399405182
 H         -4.4120913719        1.1659899100        4.5071454089
 H         -5.6720309765        0.7188499833        2.4387004785
 H         -3.3638033148       -2.2990891937        0.1789110727
 H         -4.5114343944       -4.4829130003        0.3437709412
 H         -6.9601200184       -4.6083640646        0.3385398483
 H         -8.3254916486       -2.5576872999        0.1682767073
 H         -9.2683797425       -0.1303430032       -0.0328347673
 H         -9.6461433904        2.3027047495       -0.2297547479
 H         -7.7523250430        3.8565331925       -0.3377860136
 H         -5.4267412317        3.0145334306       -0.2516930566
 H         -5.6384841250        0.3313913331       -2.5494671018
 H         -4.3511523853        0.4414444224       -4.6462470776
 H         -1.8782409360        0.5208643594       -4.5617261474
 H         -0.7226495654        0.5268968706       -2.3998592657
 H         -0.4740487861       -1.7336046437        0.2788016404
 H          1.9950030087       -1.9399395541        0.2965628949
 H          8.2347596526       -1.8494433005        0.1964386132
 H          9.2810954912       -4.0796523099        0.4508981116
  80
       -125.46354281
 C          7.5232026756       -4.8812633652        1.4418673955
 C          6.1397820496       -4.7751181317        1.4595858401
 C          5.5292458426       -3.5925017971        1.0966010100
 C          6.3008159961       -2.4950770381        0.7095175752
 C          5.6632037273       -1.2410168612        0.3339698103
 N          6.4550774199       -0.1994710589        0.0010170990
 C          5.8345442887        0.9504157708       -0.3239122054
 C          6.6604525010        2.0900320524       -0.7064565328
 C          8.0516896793        1.9885583808       -0.6819674033
 C          8.8317707836        3.0661281749       -1.0511264109
 C          8.2371166898        4.2536416975       -1.4493283389
 C          6.8540585626        4.3603050824       -1.4761887164
 C          6.0677467150        3.2880734503       -1.1075032753
 N          4.5348719779        1.0861391386       -0.3096417648
 C          3.7682700126        0.0128226260        0.0137818307
 C          2.3560696630        0.1238138337        0.0185936852
 C          1.7237459313        1.3590223514       -0.2453820230
 C          0.3575116658        1.4634259364       -0.2395180512
 C         -0.4337908368        0.3382929193        0.0161021708
 N         -1.8519221397        0.4268314902        0.0208001850
 C         -2.5162792020        0.3278810094        1.2277331060
 C         -1.7945316992        0.3354252284        2.4288756256
 C         -2.4435843312        0.2336935794        3.6395638641
 C         -3.8261910016        0.1298456922        3.6857573281
 C         -4.5485205051        0.1405130889        2.5067021030
 C         -3.9143918594        0.2450707108        1.2784455473
 C         -4.7337835741        0.2114520472        0.0163216243
 C         -5.2833443805       -1.1923820549       -0.1982998518
 C         -4.5792580590       -2.3583934111       -0.3968901538
 C         -5.2913857448       -3.5365477596       -0.5794407281
 C         -6.6777693681       -3.5368702682       -0.5617230837
 C         -7.3880669233       -2.3635965965       -0.3625741457
 C         -6.6839275943       -1.1848458890       -0.1807801283
 C         -7.1372036251        0.1803471002        0.0388772750
 C         -8.4117984526        0.7130830964        0.1378363745
 C         -8.5460899749        2.0762309172        0.3500936621
 C         -7.4311034927        2.8929738778        0.4615419955
 C         -6.1502634237        2.3646632368        0.3642020087
 C         -6.0128143314        1.0106064021        0.1531177736
 C         -3.9351486252        0.6112512060       -1.1960676749
 C         -4.5950679965        0.8644749436       -2.3884403197
 C         -3.8954477569        1.1268019375       -3.5519557822
 C         -2.5088329207        1.1044308270       -3.5315865845
 C         -1.8338099292        0.8566268624       -2.3563782619
 C         -2.5329365444        0.6324351566       -1.1629760025
 C          0.1773984453       -0.8912125947        0.2859213706
 C          1.5426886365       -0.9983486040        0.2913387726
 N          4.3588241949       -1.1641865785        0.3305390235
 C          7.6918863055       -2.6085076128        0.6932027755
 C          8.2951534343       -3.7953828980        1.0573508718
 H          7.9978050471       -5.8085467211        1.7276429775
 H          5.5389733036       -5.6215842634        1.7597761037
 H          4.4546808539       -3.4944288530        1.1074551255
 H          8.4986809066        1.0576557989       -0.3695761949
 H          9.9088401019        2.9837750460       -1.0300711629
 H          8.8495836876        5.0947346879       -1.7394280068
 H          6.3914217544        5.2856417700       -1.7878302035
 H          4.9909181198        3.3548386516       -1.1254138368
 H          2.3448494601        2.2192066362       -0.4388370609
 H         -0.1243289095        2.4134922716       -0.4228717387
 H         -0.7207370832        0.4281680955        2.3995687599
 H         -1.8686654545        0.2382690479        4.5530989690
 H         -4.3363640692        0.0448538687        4.6325585464
 H         -5.6252964307        0.0644337109        2.5330295560
 H         -3.4991478228       -2.3590644422       -0.4139731143
 H         -4.7587826282       -4.4624382612       -0.7382839299
 H         -7.2106699150       -4.4650373738       -0.7069234215
 H         -8.4677953150       -2.3697039940       -0.3512651861
 H         -9.2830666841        0.0810727854        0.0517425495
 H         -9.5324588414        2.5090629533        0.4297054716
 H         -7.5598927673        3.9523809905        0.6263009869
 H         -5.2818096362        3.0011569957        0.4519579530
 H         -5.6746132758        0.8452143492       -2.4010549685
 H         -4.4259549311        1.3270622085       -4.4697648432
 H         -1.9497608773        1.2783810977       -4.4384212068
 H         -0.7564063127        0.8289151070       -2.3536386172
 H         -0.4448909863       -1.7518913280        0.4868963125
 H          2.0249422255       -1.9416503333        0.4927076141
 H          8.2782650737       -1.7541898857        0.3926531089
 H          9.3723317829       -3.8782606226        1.0443250986
  80
       -125.46157169
 C          7.3743355784       -4.7591355468        1.9797589703
 C          5.9995724191       -4.5853704175        2.0524423003
 C          5.4149286883       -3.4503078673        1.5301516479
 C          6.2039552216       -2.4693895884        0.9261793598
 C          5.5927290612       -1.2539285608        0.4066945610
 N          6.3991697086       -0.2935771938       -0.0895767751
 C          5.8045303652        0.8458655552       -0.4945133147
 C          6.6397649371        1.8865063241       -1.0800928594
 C          6.0653671587        3.0658168308       -1.5575107224
 C          6.8563264459        4.0365723253       -2.1367445545
 C          8.2261666629        3.8457466324       -2.2491679735
 C          8.8029064349        2.6770966028       -1.7754805707
 C          8.0183180935        1.7015770089       -1.1936532573
 N          4.5167629964        1.0495736854       -0.3911612559
 C          3.7317678733        0.0400233679        0.0595054882
 C          2.3249645835        0.2038838543        0.1188400498
 C          1.7300834198        1.4708982913       -0.0678230667
 C          0.3690280905        1.6220474041       -0.0166116619
 C         -0.4581320415        0.5100701159        0.1825862393
 N         -1.8704391410        0.6267882984        0.1998748114
 C         -2.5399692792        0.3129986951        1.3696946284
 C         -1.8323240950        0.1878768185        2.5721991607
 C         -2.4857720545       -0.1334653048        3.7418029005
 C         -3.8588167863       -0.3296709812        3.7448464250
 C         -4.5700791065       -0.1819497986        2.5677782214
 C         -3.9315102906        0.1469227769        1.3826769192
 C         -4.7208600715        0.2684099851        0.1086303772
 C         -5.0284917638       -1.1111949507       -0.4625961651
 C         -4.1409994135       -2.0784609639       -0.8771651353
 C         -4.6491848225       -3.2572231876       -1.4070453198
 C         -6.0171791719       -3.4525618040       -1.5191460101
 C         -6.9118016265       -2.4800664633       -1.1013481835
 C         -6.4117178544       -1.3029463183       -0.5697659487
 C         -7.0850852447       -0.1174287939       -0.0621539422
 C         -8.4316404838        0.1793454950        0.0683600394
 C         -8.7914555101        1.4048951779        0.6066556896
 C         -7.8271359237        2.3180057211        1.0059089452
 C         -6.4753467216        2.0277351505        0.8741883806
 C         -6.1133108987        0.8103256266        0.3400180459
 C         -3.9601521210        1.0225398165       -0.9516831622
 C         -4.6361865180        1.5455169042       -2.0419143653
 C         -3.9515703909        2.0840489648       -3.1164141057
 C         -2.5656617133        2.0500567411       -3.1236464597
 C         -1.8748415537        1.5419373936       -2.0447481565
 C         -2.5567946077        1.0624704438       -0.9191329748
 C          0.1201186318       -0.7500335568        0.3866854307
 C          1.4804178819       -0.9001687673        0.3701648540
 N          4.2916523100       -1.1311941522        0.4468590998
 C          7.5856411512       -2.6516435196        0.8529027157
 C          8.1629569010       -3.7907123728        1.3772143953
 H          7.8293513766       -5.6472051620        2.3933708112
 H          5.3854821431       -5.3401557323        2.5222501254
 H          4.3480211503       -3.2975187946        1.5844215758
 H          4.9979278617        3.1966324683       -1.4682737809
 H          6.4075066576        4.9472057550       -2.5067911605
 H          8.8421491808        4.6066676608       -2.7056218363
 H          9.8695304297        2.5289300188       -1.8636786999
 H          8.4511244446        0.7852469806       -0.8234792478
 H          2.3755748521        2.3200960240       -0.2273291358
 H         -0.0783074561        2.6011304796       -0.1137757224
 H         -0.7669265631        0.3537806221        2.5791406255
 H         -1.9217784867       -0.2280542414        4.6572434226
 H         -4.3716396345       -0.5895058265        4.6577729494
 H         -5.6400817156       -0.3257401889        2.5626893316
 H         -3.0744016299       -1.9263782336       -0.8014913191
 H         -3.9699921200       -4.0278969709       -1.7400800267
 H         -6.3894521251       -4.3750579389       -1.9397164864
 H         -7.9762393459       -2.6364763303       -1.1926990637
 H         -9.1857685711       -0.5297392327       -0.2387695763
 H         -9.8368336921        1.6521133972        0.7187941568
 H         -8.1306843605        3.2660078349        1.4245203172
 H         -5.7244167978        2.7391096869        1.1858373035
 H         -5.7152576888        1.5142311405       -2.0520905372
 H         -4.4936939408        2.4954144294       -3.9534670199
 H         -2.0178612982        2.4200782230       -3.9769328586
 H         -0.7986338566        1.5043821519       -2.0737953499
 H         -0.5255122587       -1.6009108641        0.5537390042
 H          1.9343552252       -1.8662122703        0.5241334856
 H          8.1858990414       -1.8870610560        0.3848100240
 H          9.2331933545       -3.9273244494        1.3202453042
