  91
       -144.97596386
 N         -9.9699929333        2.5763955933        0.8118350723
 C         -9.0497477811        1.9648613934        0.4939159979
 C         -7.8823783622        1.2563721190        0.1646511429
 C         -6.8858467897        1.8111027518       -0.6691890447
 C         -7.0816744533        3.0561564499       -1.4178474501
 C         -5.9976737492        3.9150416459       -1.5931381971
 C         -6.1499946538        5.0934248136       -2.2967930670
 C         -7.3797255145        5.4201893876       -2.8460240567
 C         -8.4549462680        4.5602319142       -2.6946409819
 C         -8.3111818396        3.3830457576       -1.9842186239
 N         -5.7079130454        1.2234331047       -0.8001785206
 C         -5.4855077447        0.0840243896       -0.1510751687
 C         -4.1647269685       -0.5223799020       -0.2677561672
 C         -3.1719434914        0.0852586504       -1.0375546903
 C         -1.9245472482       -0.4894782937       -1.1464851402
 C         -1.6416777685       -1.6846364024       -0.4834726336
 N         -0.3805321535       -2.2719197764       -0.5956645373
 C         -0.1304447353       -3.6026315788       -0.8816119729
 C         -1.0185725571       -4.6287711886       -1.1697819383
 C         -0.4943208765       -5.8756235448       -1.4543755315
 C          0.8796123780       -6.1028643804       -1.4656788330
 C          1.7691766826       -5.0783871506       -1.2098606658
 C          1.2656607185       -3.8175847484       -0.9205468351
 C          1.8832568175       -2.5509362264       -0.6392079536
 C          3.2037119418       -2.1464687400       -0.5250437889
 C          3.4835971074       -0.8241679893       -0.2047146317
 C          4.8757933450       -0.3645755452       -0.0877460288
 C          5.8310590157       -0.7922142618       -1.0203239886
 C          7.1470506063       -0.3826656555       -0.9639186392
 C          7.5167891776        0.4826047623        0.0559894693
 C          6.5761994477        0.9015364276        1.0246378354
 C          5.2570145804        0.4828961114        0.9442166934
 C          7.2911470554        1.7330796336        1.9523376997
 C          6.9163013681        2.4374987166        3.0886094830
 C          7.8728231582        3.1783136660        3.7534497392
 C          9.1852678857        3.2344539908        3.2893871937
 C          9.5825073080        2.5420952530        2.1615591927
 C          8.6313865863        1.7757314455        1.5031733529
 N          8.7531820076        1.0165457453        0.3565504284
 C          9.9278771718        0.8282575568       -0.3848051531
 C         11.1005690656        0.4283423115        0.2493730527
 C         12.2569000218        0.2491810125       -0.4871039396
 C         12.2524237304        0.4551871324       -1.8567359592
 C         11.0848983875        0.8478041988       -2.4900510845
 C          9.9264046641        1.0400837153       -1.7606343024
 C          2.4275831476        0.0702598573        0.0148881805
 C          1.1057149633       -0.3100867497       -0.0993721466
 C          0.8335336805       -1.6249233360       -0.4483494989
 C         -2.6321488861       -2.2922145399        0.2897540995
 C         -3.8799539197       -1.7182543172        0.3929418586
 N         -6.3930524025       -0.5490431379        0.5871813347
 C         -7.5821252190        0.0065389433        0.7506912860
 C         -8.5402075527       -0.7359590568        1.5750585196
 C         -9.9028392666       -0.7442798709        1.2883207650
 C        -10.7730202968       -1.4651978613        2.0848008161
 C        -10.2962025463       -2.1808805755        3.1705861531
 C         -8.9391515149       -2.1888445503        3.4518198479
 C         -8.0637951812       -1.4775209333        2.6553226047
 H         -5.0462524093        3.6465167548       -1.1599244019
 H         -5.3086785246        5.7592687059       -2.4194651196
 H         -7.4989700063        6.3410205234       -3.3972511457
 H         -9.4104887263        4.8047040731       -3.1339584774
 H         -9.1489110907        2.7081799095       -1.8917719660
 H         -3.4038953203        1.0027620242       -1.5555663447
 H         -1.1649015014       -0.0332534852       -1.7635575278
 H         -2.0848008712       -4.4619884134       -1.1866861352
 H         -1.1663572375       -6.6911794458       -1.6768861620
 H          1.2496055990       -7.0923257614       -1.6889241389
 H          2.8349606298       -5.2475819853       -1.2374252159
 H          4.0036115882       -2.8591155222       -0.6575007774
 H          5.5196987276       -1.4492677831       -1.8188932563
 H          7.8660724279       -0.7337852824       -1.6887374054
 H          4.5421368964        0.7919718426        1.6917872352
 H          5.8955856655        2.4062492749        3.4389025680
 H          7.6031241497        3.7313049481        4.6408451445
 H          9.9080718227        3.8355221178        3.8211472692
 H         10.5977317173        2.6063958940        1.8001350511
 H         11.0943168401        0.2469403636        1.3138015064
 H         13.1638529677       -0.0613146824        0.0101871890
 H         13.1560499885        0.3101754996       -2.4290220450
 H         11.0774937019        1.0138108031       -3.5571494503
 H          9.0196236113        1.3678539387       -2.2467178473
 H          2.6586313488        1.0951357137        0.2651113425
 H          0.3123043742        0.3975050984        0.0882458018
 H         -2.4048594102       -3.2039112587        0.8217115556
 H         -4.6521572456       -2.1798043198        0.9882893085
 H        -10.2815049668       -0.2075641690        0.4314245280
 H        -11.8279015177       -1.4686235378        1.8546567180
 H        -10.9813460842       -2.7366043515        3.7932733826
 H         -8.5642604109       -2.7518243844        4.2937257335
 H         -7.0044951745       -1.4715331277        2.8628391205
