  57
        -83.63150636
 C          6.1883811440        1.0145604205        0.9743964672
 N          5.1952773448        1.5930346716        0.1041255593
 C          5.5742505631        2.7223773949       -0.7079219823
 C          3.9186732365        1.1033986798        0.0708731206
 C          3.0049739819        1.5170116715       -0.9117472433
 C          1.7205288984        1.0200913117       -0.9479625833
 C          1.2961004826        0.0912941811       -0.0054886946
 N         -0.0207604975       -0.4069274299       -0.0323207758
 C         -0.4191283860       -1.7165036633       -0.0389971149
 C          0.4605382727       -2.8711246577       -0.1148599519
 C          1.6761995281       -2.8481145096       -0.7962691280
 C          2.4642449935       -3.9829195616       -0.8465617250
 C          2.0508994096       -5.1529792278       -0.2319630255
 C          0.8309986541       -5.1901447302        0.4247981962
 C          0.0400262808       -4.0600638351        0.4822093809
 N         -1.7278567646       -1.8106294677       -0.0043470604
 C         -2.2186777243       -0.5426339479        0.0169854202
 C         -3.6515088376       -0.3024965844        0.0909268992
 C         -4.1797658511        0.8637349682        0.6419923343
 C         -5.5479919426        1.0513214421        0.6940529496
 C         -6.4083454144        0.0799766903        0.2087566452
 C         -5.8912953062       -1.0911749608       -0.3210157315
 C         -4.5248245146       -1.2830521929       -0.3783629391
 C         -1.1634721333        0.3578077702       -0.0050343024
 C         -1.1375246911        1.8141118493       -0.0264478212
 C         -1.9283647730        2.5086552856       -0.9409657677
 C         -1.9025443265        3.8893784974       -0.9799656924
 C         -1.0864208882        4.5963776770       -0.1115340544
 C         -0.3010220236        3.9138829194        0.8024683633
 C         -0.3240006052        2.5326430683        0.8479801296
 C          2.1845578257       -0.3268443145        0.9782539818
 C          3.4705115436        0.1656332106        1.0152015834
 H          6.0458514012        1.3179847633        2.0183911366
 H          7.1776115692        1.3361810546        0.6555497376
 H          6.1571267954       -0.0757387309        0.9201585587
 H          5.7142245296        2.4407848124       -1.7574283345
 H          6.5090802164        3.1352208690       -0.3365002976
 H          4.8162308395        3.5071948020       -0.6551628977
 H          3.3004045026        2.2229030101       -1.6697126809
 H          1.0387649151        1.3473948900       -1.7189504158
 H          2.0008314399       -1.9510199061       -1.3011742588
 H          3.4061512734       -3.9543495365       -1.3752538028
 H          2.6728065705       -6.0351081465       -0.2720596303
 H          0.4980431286       -6.1043922785        0.8939402299
 H         -0.9149749740       -4.0722865278        0.9836670307
 H         -3.5183872651        1.6180405551        1.0400328616
 H         -5.9469590216        1.9601595279        1.1218200486
 H         -7.4770081842        0.2325617976        0.2510035664
 H         -6.5584072431       -1.8567468464       -0.6906884240
 H         -4.1070114958       -2.1914943606       -0.7833703305
 H         -2.5616909620        1.9544889467       -1.6180462892
 H         -2.5187010684        4.4165451498       -1.6937168295
 H         -1.0650266482        5.6756029996       -0.1450690955
 H          0.3314071516        4.4612121539        1.4864880700
 H          0.2814014407        2.0069822354        1.5718435000
 H          1.8596497925       -1.0428180619        1.7190453315
 H          4.1237177474       -0.1717309603        1.8024562715
