  66
       -107.49596440
 C          0.6171133317       -0.0779389526       -0.0451646654
 C         -0.6170269356       -0.0769130145       -0.0418392929
 C         -1.9844883754       -0.0705384534       -0.0362480307
 C         -2.7162544404       -0.0541483850        1.1897436493
 C         -4.0795496027       -0.0468392272        1.1920945063
 C         -4.7986977584       -0.0352164319       -0.0186465382
 N         -6.2055076208       -0.0083473683       -0.0093222855
 C         -6.8987700653        1.0392942439       -0.6049542825
 C         -6.2466751427        2.1279707804       -1.1821758797
 C         -6.9660169701        3.1516603338       -1.7722119336
 C         -8.3492655769        3.1202239020       -1.7878048575
 C         -9.0166377164        2.0670376306       -1.1831477391
 C         -8.3034750416        1.0399144046       -0.5895423248
 O         -9.0274977229        0.0548181053        0.0246742338
 C         -8.3338103910       -0.9630036970        0.6201798719
 C         -9.0773698220       -1.9582259238        1.2304681356
 C         -8.4430777378       -3.0411493165        1.8179183685
 C         -7.0634622926       -3.1342217363        1.7686251707
 C         -6.3137103411       -2.1425628595        1.1621237313
 C         -6.9305446388       -1.0249845234        0.6015588177
 C         -4.0944976787       -0.0476147832       -1.2380485826
 C         -2.7313699266       -0.0759232635       -1.2529812595
 C          1.9845518711       -0.0673413902       -0.0369433645
 C          2.7342853377       -0.0527240863       -1.2518660064
 C          4.0976793606       -0.0431393791       -1.2336957199
 C          4.7986990389       -0.0273203557       -0.0124915469
 N          6.2053987289        0.0007195726        0.0014579395
 C          6.8865244934        1.0479903356        0.6115671090
 C          6.2230380148        2.1405188737        1.1682296586
 C          6.9298232848        3.1626934545        1.7756893426
 C          8.3119009156        3.1258000236        1.8296798779
 C          8.9915728063        2.0692170860        1.2450273537
 C          8.2910824016        1.0439275697        0.6334891350
 O          9.0274994234        0.0555822072        0.0396735441
 C          8.3461767673       -0.9595200911       -0.5744357107
 C          9.1023546109       -1.9562265958       -1.1666121422
 C          8.4803535273       -3.0374946150       -1.7700134153
 C          7.0997230561       -3.1276047490       -1.7545547014
 C          6.3374503982       -2.1343281073       -1.1665069419
 C          6.9427023321       -1.0180439017       -0.5909968179
 C          4.0763303500       -0.0359162480        1.1964320639
 C          2.7134395168       -0.0662586018        1.1909138195
 H         -2.1643539408       -0.0361306458        2.1177516394
 H         -4.6263994298       -0.0168168735        2.1242558622
 H         -5.1701384235        2.1718720846       -1.1564041985
 H         -6.4361416497        3.9795945115       -2.2169470064
 H         -8.9109756036        3.9153295546       -2.2516425192
 H        -10.0936550990        2.0247033418       -1.1528025717
 H        -10.1516764744       -1.8675209994        1.2270879902
 H         -9.0280910394       -3.8111779999        2.2949088003
 H         -6.5604577129       -3.9862415678        2.1991530518
 H         -5.2409767256       -2.2340531083        1.1097975652
 H         -4.6536456461       -0.0651760942       -2.1632226613
 H         -2.1920345138       -0.1106123005       -2.1878832666
 H          2.1966274497       -0.0384728616       -2.1882664197
 H          4.6582751998       -0.0151627351       -2.1577334705
 H          5.1477244435        2.1885676067        1.1122342815
 H          6.3911398769        3.9943468231        2.2028011100
 H          8.8635601078        3.9197338378        2.3072360595
 H         10.0686978263        2.0231489614        1.2439429542
 H         10.1765345805       -1.8683155746       -1.1360533536
 H          9.0753414259       -3.8089119955       -2.2323079473
 H          6.6057348263       -3.9789814303       -2.1964679638
 H          5.2636920034       -2.2240134433       -1.1397887482
 H          4.6216546855       -0.0487252745        2.1298911600
 H          2.1598469805       -0.0976644916        2.1175526190
