52
 energy: -79.323000577824 gnorm: 0.000037580224 xtb: 6.7.1 (edcfbbe)
O            7.78293435508794        0.74036195357283       -0.94132880567213
C            7.19846224298225       -0.08143420833059        0.04609926622122
C            5.68860627638445       -0.06753432979774        0.04457620623601
C            4.98203489044883       -0.34332730285707        1.20899031166932
C            3.59985305864193       -0.34777709265098        1.20683712312951
C            2.89315367887442       -0.06620756050975        0.04117980463120
C            1.41256660854512       -0.06543741031630        0.04045837735167
C            0.71532819975905        1.15026350074506        0.01481024287294
C            1.39159975600114        2.39915885824808        0.01105218157034
C            0.70553960266656        3.57436308396887       -0.00327289540936
C           -0.70434569019260        3.57455988914391       -0.00460626958094
C           -1.39073799183803        2.39953874876276        0.00862511901768
C           -0.71479023617641        1.15047425196772        0.01371777103778
C           -1.41238143576178       -0.06502552773755        0.03840678120458
C           -2.89298021712729       -0.06563878533201        0.03860722549663
C           -3.59933025484397       -0.34642298382308        1.20469273358263
C           -4.98147709224244       -0.34235701155798        1.20725059191059
C           -5.68841990401001       -0.06769954288625        0.04277833566043
C           -7.19830096323716       -0.08267878711845        0.04503998587977
O           -7.78410813779360        0.73348377057952       -0.94620477583371
C           -4.98468847432559        0.20701090651048       -1.12261307962472
C           -3.60181798598896        0.21308248309874       -1.12505186200436
C           -0.71515900950034       -1.28085964917003        0.06367593011301
C           -1.39182582869486       -2.52954639755769        0.06709304876678
C           -0.70545775312361       -3.70464549276624        0.08107260257045
C            0.70441527836989       -3.70487227775091        0.08246887367339
C            1.39121054180889       -2.53000712116863        0.06963370873101
C            0.71498036479674       -1.28108460160708        0.06481880519571
C            3.60165518032500        0.21350801449568       -1.12248355255863
C            4.98449116236315        0.20779966653215       -1.12046127015285
H            7.46067908178965        1.64172854130436       -0.81684865878622
H            7.55567803343581       -1.09375484071821       -0.17610430853478
H            7.57009589933633        0.19619567921231        1.04375530650043
H            5.51920678470755       -0.55820194575290        2.12199274676883
H            3.05733538021201       -0.56370891380215        2.11626438758983
H            2.47156636533938        2.39814307556285        0.02421405850761
H            1.23489326693776        4.51633213198332       -0.00669577190999
H           -1.23343453252641        4.51667265719482       -0.00915448099327
H           -2.47072722238483        2.39876999807035        0.01977939690964
H           -3.05644034341372       -0.56157198667200        2.11408078733179
H           -5.51832571914862       -0.55670807597822        2.12056077378288
H           -7.56956404635135        0.19972337478186        1.04149368771679
H           -7.55475583614896       -1.09646496172793       -0.17166497255665
H           -7.46424301677400        1.63616772259227       -0.82523284807220
H           -5.53005202520637        0.41398810941186       -2.03256748534183
H           -3.06316465618416        0.42853905635667       -2.03688152625347
H           -2.47183842117317       -2.52899354231968        0.05332216989395
H           -1.23506080141471       -4.64644438019986        0.08375143619242
H            1.23370184051314       -4.64684660064775        0.08641008604331
H            2.47124595469261       -2.52986355328311        0.05801781334430
H            3.06264707337232        0.42948047077945       -2.03398002210419
H            5.52954871820455        0.41576893914896       -2.03037109171823
