52
 energy: -79.253447867472 gnorm: 0.000086194625 xtb: 6.7.1 (edcfbbe)
O            7.84302488847967       -0.15725369492773       -0.85111855750315
C            7.19237900715514        0.00864295143760        0.39035348131520
C            5.68611113301728        0.00934903293181        0.30125001371008
C            4.92322926700227        0.67736235907726        1.25369104403644
C            3.54580045836825        0.67731017256105        1.17815901064388
C            2.88150556562187       -0.00078405307322        0.15012606611707
C            1.42269059017171       -0.00206047625884        0.07254340081762
C            0.71383176795583        1.23692540282541        0.01116944265767
C            1.38024196921880        2.46352260121025       -0.05899893314820
C            0.68643512412781        3.67345898407455       -0.04091248494865
C           -0.68785024995781        3.67299639469741        0.05155554270618
C           -1.38106952318131        2.46268511068450        0.06596673736730
C           -0.71403601097404        1.23661879060353       -0.00765070292173
C           -1.42228504051726       -0.00249968200995       -0.07257066593591
C           -2.88117832705257       -0.00172600261152       -0.14950698620188
C           -3.65450059905000       -0.67886060524519        0.79814438518072
C           -5.03283441537180       -0.66865134856312        0.72528099898480
C           -5.68584293128524        0.00767179864026       -0.29890008863857
C           -7.19217267985243        0.00665347889996       -0.38697712452529
O           -7.84190815819511       -0.16164285911956        0.85467415429490
C           -4.92380415127765        0.67804018403325       -1.25034963366510
C           -3.54632132138624        0.67840622983945       -1.17560862536727
C           -0.71085323855708       -1.24148148830154       -0.06446154092850
C           -1.36710771979681       -2.46765751943362       -0.20374031261379
C           -0.67818636822571       -3.67770197332174       -0.12013080458745
C            0.68009947105014       -3.67778108943099        0.10842310703971
C            1.36854884704780       -2.46772843539299        0.19588711666069
C            0.71182374875003       -1.24136564188829        0.06050898425773
C            3.65570001044430       -0.67542611888951       -0.79861968188787
C            5.03398170262249       -0.66492231683876       -0.72484233985307
H            7.54702942788203        0.54284614151173       -1.44607604752752
H            7.52368488953100       -0.83888111028963        1.00200019016894
H            7.53425772741746        0.93224559644696        0.88112891847990
H            5.41653284481853        1.19786937710636        2.06253871599584
H            2.96443123684444        1.18337627168504        1.93547838124891
H            2.45680100808237        2.47882127692828       -0.13214652388226
H            1.23510622651354        4.60267019928402       -0.08711530805478
H           -1.23695878954837        4.60180445567074        0.10056532417401
H           -2.45764691701964        2.47721765577765        0.13900018152073
H           -3.16273951128356       -1.19187558893217        1.61208529721673
H           -5.61810247137216       -1.19091646135281        1.46902775077443
H           -7.52365312758962       -0.83992751928243       -0.99981199478040
H           -7.53469407779164        0.93093398098773       -0.87593693712547
H           -7.54597875738627        0.53768601221371        1.45069292284641
H           -5.41779024261622        1.20013970706475       -2.05775498097538
H           -2.96557986762457        1.18648293590572       -1.93206429021429
H           -2.43096862428207       -2.48293074874645       -0.38438668413959
H           -1.21955167963135       -4.60656613279345       -0.22319725838367
H            1.22184964378079       -4.60674640692948        0.20851282475746
H            2.43238377761272       -2.48320988986681        0.37664018025964
H            3.16467137978601       -1.18663789842103       -1.61413974269718
H            5.61988277300221       -1.18531370542664       -1.46940411403283
