  63
       -105.66882908
 N          1.8350912635        3.5922557234       -1.0881113817
 C          1.4115748666        2.6217778041       -0.6470913956
 C          0.8405269338        1.4168580760       -0.1769337482
 C         -0.5418270015        1.2705240662       -0.2420690095
 C         -1.1368639180        0.0644085170        0.1024461397
 C         -2.5940284890       -0.0753742096        0.0464908206
 N         -3.3070787433        1.0103207381       -0.2273983181
 C         -4.6282046538        0.8429872685       -0.2600019638
 C         -5.4620745346        2.0075941080       -0.5476399396
 C         -4.8792880471        3.2608845494       -0.7276081571
 C         -5.6721942502        4.3596242087       -0.9953995324
 C         -7.0483218166        4.2184096432       -1.0865824731
 C         -7.6328228966        2.9737776883       -0.9093875942
 C         -6.8461784510        1.8709396032       -0.6404513134
 N         -5.2305459610       -0.3217072232       -0.0425175990
 C         -4.4387531718       -1.3556114737        0.2225639556
 C         -5.0616398547       -2.6542860024        0.4681102636
 C         -6.4504694343       -2.7736584338        0.4719710120
 C         -7.0379147681       -4.0016571367        0.7050835672
 C         -6.2483373411       -5.1178086084        0.9349722404
 C         -4.8664932154       -5.0045418720        0.9315544761
 C         -4.2722271181       -3.7794524495        0.6997126416
 N         -3.1099637519       -1.2759081332        0.2798078209
 C         -0.3367410285       -1.0102090669        0.4929252167
 C          1.0317301657       -0.8692475166        0.5738681679
 C          1.6399798349        0.3461304803        0.2651669383
 N          3.0207122817        0.4789523247        0.3729901618
 C          3.7291810227        1.5296964959        0.9497054109
 C          3.2552472756        2.6261786358        1.6509622797
 C          4.1828510167        3.5126185166        2.1626341386
 C          5.5507367248        3.3065411416        1.9980061910
 C          6.0316810945        2.1939365942        1.3400795925
 C          5.1199045827        1.2845667650        0.8159954403
 C          5.2417624391        0.0309952284        0.1393529745
 C          6.2158954091       -0.8765292814       -0.3741464845
 C          7.6073524556       -0.8142842173       -0.3622774565
 C          8.3403321102       -1.8344419944       -0.9314931319
 C          7.7101951828       -2.9269831546       -1.5195212885
 C          6.3307874407       -3.0139651075       -1.5472094518
 C          5.5953803570       -1.9916893550       -0.9770183662
 S          3.8343037535       -1.9249034750       -0.9147733273
 C          3.9517349167       -0.4159247196       -0.0796430050
 H         -1.1585606809        2.0905301810       -0.5755445454
 H         -3.8074356593        3.3540245054       -0.6513098179
 H         -5.2191244473        5.3303168727       -1.1334662999
 H         -7.6658780378        5.0795705780       -1.2960220952
 H         -8.7051498075        2.8667366353       -0.9819291164
 H         -7.2831631452        0.8945894605       -0.5008745506
 H         -7.0487733948       -1.8942423881        0.2927235535
 H         -8.1141544543       -4.0927153318        0.7089454577
 H         -6.7103785593       -6.0771484392        1.1170268398
 H         -4.2538458764       -5.8760548329        1.1098706926
 H         -3.1987527014       -3.6739336971        0.6909456840
 H         -0.8108614024       -1.9456960895        0.7431455588
 H          1.6478852681       -1.6962723572        0.8925776203
 H          2.1995528731        2.7867250046        1.8050347361
 H          3.8390335105        4.3800888022        2.7047610337
 H          6.2438300536        4.0254971246        2.4080527143
 H          7.0923399428        2.0246433347        1.2400515237
 H          8.0978564325        0.0321875238        0.0923069087
 H          9.4190122472       -1.7865954160       -0.9217048693
 H          8.3021937885       -3.7148348524       -1.9594393993
 H          5.8334879127       -3.8565927435       -2.0024054136
