  45
        -74.24412787
 O         -4.0206189032        0.9107854729        2.1664636820
 S         -3.6056118804        1.1609717163        0.8060185398
 O         -3.9714093998        2.4230164051        0.2069475680
 C         -4.1917086110       -0.1720232200       -0.2409510776
 C         -4.3535887947       -1.4365524726        0.3011203516
 C         -4.7130780352       -2.4855525701       -0.5248913979
 C         -4.8954226135       -2.2681603060       -1.8838245774
 C         -4.7257699146       -0.9979958709       -2.4175590133
 C         -4.3663339668        0.0549562358       -1.5962986067
 C         -1.8629940898        0.9142411780        0.6617219092
 C         -1.2001054919        0.0476325339        1.5516632967
 C          0.1205661756       -0.2385743780        1.3740626594
 C          0.8427527135        0.3370793844        0.2881985375
 N          2.1790621414        0.0712503854        0.1136610294
 C          2.7824556620       -1.1669988871        0.2505352189
 C          2.2088597879       -2.4033191156        0.5014365147
 C          3.0458475996       -3.5116753291        0.5664489005
 C          4.4220339825       -3.3817670042        0.3704641299
 C          5.0010841760       -2.1568138644        0.0780733396
 C          4.1830442988       -1.0339315781       -0.0043367884
 C          4.4130655522        0.3367250298       -0.3226000544
 C          5.5449364379        1.0736218744       -0.6576969784
 C          5.4155614519        2.4397099883       -0.8548875312
 C          4.1869903560        3.0859257531       -0.7083235485
 C          3.0393244150        2.3704476906       -0.3863620629
 C          3.1490440837        0.9979242167       -0.2284240615
 C          0.1537946557        1.1979897256       -0.6147384297
 C         -1.1733719898        1.4534032215       -0.4405097939
 H         -4.2195030429       -1.5698902634        1.3629941857
 H         -4.8571836750       -3.4728178412       -0.1103246550
 H         -5.1746815048       -3.0891670196       -2.5271492898
 H         -4.8759690202       -0.8299471994       -3.4735358656
 H         -4.2422045185        1.0559931046       -1.9772507775
 H         -1.7558188942       -0.3347731558        2.3924497647
 H          0.6601732052       -0.8297941798        2.0980137254
 H          1.1418230429       -2.5144165504        0.6185493476
 H          2.6234734036       -4.4845153089        0.7596755063
 H          5.0448759993       -4.2617406281        0.4305109580
 H          6.0631828031       -2.0726799685       -0.0911152699
 H          6.5043787545        0.5892983870       -0.7519121080
 H          6.2873845657        3.0238230269       -1.1092759313
 H          4.1267230458        4.1546786817       -0.8361406112
 H          2.0989652060        2.8792710725       -0.2412650819
 H          0.6814430970        1.5740916479       -1.4777523677
 H         -1.7209102457        2.0828042152       -1.1232143213
