  45
  -74.0010901893000       0.232479619493885      !
 O         -3.9077980174        2.4196989298       -0.3223536412
 S         -3.5668078489        1.1225206770       -0.8595712868
 O         -3.9423956927        0.8342409541       -2.2245152912
 C         -4.2515023643       -0.1435261338        0.2114497446
 C         -4.4923135860        0.1495265402        1.5434244078
 C         -4.9482660471       -0.8494103258        2.3840163080
 C         -5.1483442924       -2.1318987292        1.8927185652
 C         -4.8984549352       -2.4161193936        0.5570775613
 C         -4.4422337723       -1.4212455062       -0.2878994645
 C         -1.8379172740        0.8292450851       -0.6513161814
 C         -1.1634208437        1.3823245422        0.4534914861
 C          0.1626663078        1.1332228110        0.6449825477
 C          0.8658814293        0.2680168669       -0.2425629950
 N          2.2088296176        0.0355418628       -0.0712635405
 C          2.8441239128       -1.1864619171       -0.2014360667
 C          2.3019497350       -2.4415913591       -0.4293939022
 C          3.1685913113       -3.5262644334       -0.4968511613
 C          4.5438984487       -3.3552084779       -0.3256177973
 C          5.0926548984       -2.1115484218       -0.0555642704
 C          4.2448725842       -1.0111964709        0.0289104314
 C          4.4414831843        0.3694293567        0.3249638226
 C          5.5582946217        1.1428679315        0.6273859806
 C          5.3941875046        2.5078974327        0.8061369187
 C          4.1456620043        3.1169525006        0.6739375153
 C          3.0126605370        2.3644949692        0.3838494125
 C          3.1583553277        0.9937928762        0.2438885355
 C          0.1542294653       -0.3338631349       -1.3215589994
 C         -1.1654852103       -0.0545294015       -1.5165297357
 H         -4.3428624898        1.1600456241        1.8895093826
 H         -5.1520958412       -0.6290023486        3.4211853168
 H         -5.5051326977       -2.9101112370        2.5504945136
 H         -5.0632894384       -3.4128436098        0.1759534869
 H         -4.2529064122       -1.6058084643       -1.3335426916
 H         -1.7194587485        2.0197533734        1.1217472956
 H          0.6802128763        1.5216057420        1.5087720049
 H          1.2367717373       -2.5838156916       -0.5271429440
 H          2.7711948255       -4.5127517980       -0.6731959059
 H          5.1905638510       -4.2175220828       -0.3890063461
 H          6.1549104442       -1.9956168283        0.0926791347
 H          6.5324608773        0.6870350433        0.7118782888
 H          6.2538336721        3.1196655219        1.0354433096
 H          4.0571379307        4.1854131350        0.7867151517
 H          2.0563425355        2.8450220368        0.2471998895
 H          0.7018698426       -0.9365469210       -2.0297213673
 H         -1.7118560315       -0.4522365882       -2.3563040124
  45
  -74.0010696305000       0.227476593409161      !
 O         -3.9618176106        1.6524192740        1.8060961190
 S         -3.5847628754        1.3993023781        0.4351852780
 O         -3.9696205604        2.3686008132       -0.5637119925
 C         -4.1963417593       -0.2143298398       -0.0533764805
 C         -4.3405175335       -1.2021748468        0.9070694821
 C         -4.7201557894       -2.4735485856        0.5179515828
 C         -4.9401132106       -2.7521993602       -0.8241291923
 C         -4.7879521346       -1.7561826584       -1.7789956307
 C         -4.4085059800       -0.4828044614       -1.3957208231
 C         -1.8462051377        1.1040395737        0.3421739391
 C         -1.1572832082        0.6054738182        1.4643353673
 C          0.1586634569        0.2647071404        1.3653783966
 C          0.8495763493        0.4110599502        0.1271329560
 N          2.1811935290        0.0903080501        0.0233775177
 C          2.7908526358       -1.0229251679        0.5757425428
 C          2.2270834083       -2.0847880345        1.2649906151
 C          3.0679934507       -3.1039656043        1.6978602084
 C          4.4380077159       -3.0627895209        1.4322653907
 C          5.0061186832       -2.0263455669        0.7081552094
 C          4.1836409638       -0.9999234908        0.2533657839
 C          4.4018232462        0.1661712814       -0.5375326256
 C          5.5224598342        0.7270502139       -1.1425343367
 C          5.3847058200        1.9346820548       -1.8092185982
 C          4.1591769025        2.6001743839       -1.8697296358
 C          3.0223441413        2.0547638600       -1.2842009843
 C          3.1393900257        0.8273102263       -0.6513808342
 C          0.1342516907        0.8998786902       -1.0044552465
 C         -1.1882115091        1.2107162548       -0.8975250355
 H         -4.1771188718       -0.9502278786        1.9430026834
 H         -4.8506690003       -3.2477357196        1.2601950191
 H         -5.2350561834       -3.7461411024       -1.1257791442
 H         -4.9673736354       -1.9734680811       -2.8213402043
 H         -4.2970718048        0.3163599016       -2.1109314456
 H         -1.6889231345        0.5513091954        2.4004969795
 H          0.7191956965       -0.0345573906        2.2377694185
 H          1.1639014067       -2.1387987725        1.4420565426
 H          2.6532256837       -3.9412447813        2.2355268228
 H          5.0642102679       -3.8686429484        1.7849153522
 H          6.0629987106       -2.0160150861        0.4921582635
 H          6.4800354149        0.2335414252       -1.0835990096
 H          6.2479409109        2.3834599749       -2.2776207736
 H          4.0930630057        3.5540527788       -2.3676725371
 H          2.0851829708        2.5891174033       -1.3048175103
 H          0.6372427685        0.9404629349       -1.9584004679
 H         -1.7556275844        1.5603930173       -1.7447525040
  45
  -74.0009070814000       0.191528903219046      !
 O         -4.0279899171       -2.1310349568        0.9656320922
 S         -3.5807204073       -0.7831891393        1.2316251740
 O         -3.8867885568       -0.2091948495        2.5214223302
 C         -4.2052607260        0.2955647072       -0.0587887427
 C         -4.2386798327        1.6631121801        0.1585166735
 C         -4.6301509479        2.5010697212       -0.8692438721
 C         -4.9711233073        1.9708669126       -2.1063706915
 C         -4.9291100116        0.5995671319       -2.3149108940
 C         -4.5393344000       -0.2434317604       -1.2902414859
 C         -1.8460769558       -0.6524468597        0.9289767524
 C         -1.0743337061        0.2791005703        1.6487115431
 C          0.2431116045        0.4563932846        1.3484946458
 C          0.8511455162       -0.2950708325        0.2996778058
 N          2.1832095857       -0.1368553204        0.0057900905
 C          3.0744666393       -1.1558894695       -0.2875650840
 C          2.8780210396       -2.5277539459       -0.2818237234
 C          3.9587211954       -3.3451996863       -0.5933417079
 C          5.2085054172       -2.7981022798       -0.8885166394
 C          5.4276702165       -1.4297853854       -0.8533832828
 C          4.3644455412       -0.5907583113       -0.5330201508
 C          4.2349610610        0.8180976576       -0.3577094946
 C          5.1204822839        1.8879424251       -0.4459911464
 C          4.6343281296        3.1718754346       -0.2558790492
 C          3.2829741889        3.4110914765        0.0013733994
 C          2.3803151976        2.3590023389        0.1051094572
 C          2.8637000580        1.0676361637       -0.0370958859
 C          0.0506776946       -1.2168356038       -0.4357388196
 C         -1.2701826205       -1.3690989207       -0.1374217323
 H         -3.9787051100        2.0433295603        1.1342580033
 H         -4.6719202417        3.5681291800       -0.7080827646
 H         -5.2742018882        2.6277251095       -2.9076733441
 H         -5.2030735393        0.1889722848       -3.2750161787
 H         -4.5116192925       -1.3145981609       -1.4130900358
 H         -1.5471214025        0.7995602585        2.4658733447
 H          0.8661569661        1.0967135680        1.9538501252
 H          1.9241565077       -2.9584954773       -0.0194326482
 H          3.8294243428       -4.4155573817       -0.5962026195
 H          6.0261278883       -3.4601009951       -1.1319603639
 H          6.4036010082       -1.0200736196       -1.0624688661
 H          6.1632414649        1.7174219910       -0.6636925639
 H          5.3104162310        4.0108857035       -0.3255587461
 H          2.9313359071        4.4243959596        0.1104024629
 H          1.3308368984        2.5516317667        0.2662525824
 H          0.4894954021       -1.7271091983       -1.2793450434
 H         -1.8983548235       -2.0447124721       -0.6950287076
  45
  -74.0008637492000       0.182944863914772      !
 O         -4.0259782562        1.5893717318       -1.8539563941
 S         -3.6534318391        0.2866665682       -1.3533500864
 O         -4.1416102639       -0.8753063635       -2.0588103373
 C         -4.1162586072        0.1671578648        0.3752068806
 C         -4.1718391106        1.3210873754        1.1405445131
 C         -4.4142031086        1.2212794058        2.4979796398
 C         -4.5853560572       -0.0261233444        3.0830304466
 C         -4.5239602366       -1.1761718151        2.3078806685
 C         -4.2816864647       -1.0828495954        0.9498835095
 C         -1.9003047286        0.1898255083       -1.1738080190
 C         -1.1617861887        1.3586461504       -0.9047085250
 C          0.1619587856        1.2760142408       -0.5929748278
 C          0.8118502834        0.0082731344       -0.5361909477
 N          2.1414931058       -0.0834963985       -0.2046504189
 C          3.0737762408       -0.9105010003       -0.8077039889
 C          2.9330255524       -1.7415594299       -1.9079200912
 C          4.0468346678       -2.4547331410       -2.3355824793
 C          5.2734330909       -2.3262880354       -1.6818213884
 C          5.4361737026       -1.4654320835       -0.6075386985
 C          4.3394083851       -0.7306973767       -0.1682437252
 C          4.1509968448        0.2573007982        0.8428961442
 C          4.9892936715        0.8510140713        1.7814267527
 C          4.4486710295        1.7635558251        2.6738247610
 C          3.0897076930        2.0825452719        2.6592531201
 C          2.2336138231        1.5114164660        1.7247792961
 C          2.7716042511        0.6298030222        0.8005062832
 C          0.0520897112       -1.1658972718       -0.8111323311
 C         -1.2774403827       -1.0703279901       -1.0936846585
 H         -4.0467256103        2.2751904545        0.6533900175
 H         -4.4713624971        2.1146607048        3.1018331775
 H         -4.7702690385       -0.1019224629        4.1438201315
 H         -4.6653055217       -2.1444634411        2.7642945986
 H         -4.2397590886       -1.9563540443        0.3188741418
 H         -1.6654359556        2.3071965896       -0.9973857827
 H          0.7577020582        2.1674085195       -0.4681213974
 H          1.9961622885       -1.8189389526       -2.4374651873
 H          3.9622625789       -3.1076959009       -3.1892649664
 H          6.1177037572       -2.8992648211       -2.0348962175
 H          6.3945943125       -1.3592431941       -0.1237513772
 H          6.0374593825        0.5979825191        1.8156676275
 H          5.0874672382        2.2268530882        3.4107689404
 H          2.6948206257        2.7715445572        3.3883545444
 H          1.1774461293        1.7324032600        1.7416244087
 H          0.5276866965       -2.1288850217       -0.7065480561
 H         -1.8800355677       -1.9452280647       -1.2771615452
  45
  -74.0007694465000       0.165570019963135      !
 O         -4.0780121827        2.4064389368       -0.2731862623
 S         -3.6473052799        1.1679874609       -0.8785552730
 O         -4.0890578129        0.8811874216       -2.2234199690
 C         -4.0826358408       -0.2020822849        0.1930704451
 C         -4.1797468482        0.0090672064        1.5592621138
 C         -4.3807456008       -1.0712682116        2.3980604017
 C         -4.4679969285       -2.3529379667        1.8713778838
 C         -4.3658931577       -2.5540074628        0.5013752720
 C         -4.1654598393       -1.4777530523       -0.3426439320
 C         -1.8922994882        1.0179346873       -0.7731164643
 C         -1.2067783679        1.6115877143        0.3043031499
 C          0.1168033152        1.3573620967        0.5045293507
 C          0.8041498890        0.4383254553       -0.3405301739
 N          2.1208637310        0.1241855355       -0.1079439429
 C          2.6617351410       -1.1488519986       -0.1629100250
 C          2.0291899808       -2.3649181330       -0.3679744425
 C          2.8063109328       -3.5172160261       -0.3498788063
 C          4.1809240548       -3.4495265991       -0.1168695398
 C          4.8163063086       -2.2428640979        0.1318780501
 C          4.0583626755       -1.0760713736        0.1308202383
 C          4.3506730706        0.2959839560        0.3897691740
 C          5.5090737321        0.9889820223        0.7262544659
 C          5.4455543403        2.3674850606        0.8574146616
 C          4.2570693753        3.0675066666        0.6431836761
 C          3.0836668207        2.3974425029        0.3179107989
 C          3.1266331226        1.0152808317        0.2242907599
 C          0.0932150274       -0.1712725864       -1.4156208983
 C         -1.2222203776        0.1154606001       -1.6225335491
 H         -4.1175224613        1.0176839705        1.9360550666
 H         -4.4691989121       -0.9168591805        3.4630476959
 H         -4.6177888096       -3.1957488495        2.5291680800
 H         -4.4426897796       -3.5509608916        0.0936892163
 H         -4.0922807102       -1.5991387190       -1.4117684450
 H         -1.7582663513        2.2756871355        0.9500737105
 H          0.6380767373        1.7740612561        1.3525113438
 H          0.9612542166       -2.4250581925       -0.5116515486
 H          2.3375505030       -4.4751606175       -0.5075288718
 H          4.7569336978       -4.3627353169       -0.1130416008
 H          5.8759776576       -2.2064143614        0.3309410625
 H          6.4384254579        0.4612798859        0.8738378711
 H          6.3387004462        2.9175436642        1.1133297163
 H          4.2491884814        4.1427770923        0.7209017419
 H          2.1757777093        2.9459697570        0.1205007437
 H          0.6390164217       -0.7970739121       -2.1053622385
 H         -1.7709725106       -0.2999688765       -2.4521027664
