  146
       -190.21500480
 C         -3.0789049097       -6.3886980945        0.9144674203
 C         -1.8715951581       -6.8289009018        0.0728961212
 C         -1.2674908807       -8.1154658079        0.6510637577
 C         -2.3606606103       -7.1276431881       -1.3464232659
 C         -0.8414707998       -5.7139141652        0.1123231909
 C         -0.2769275970       -5.3420184764        1.3320133733
 C          0.6031974932       -4.2839066680        1.4324028351
 C          0.9442808877       -3.5551375952        0.2979172005
 N          1.7463122371       -2.3873240614        0.3690325201
 C          3.1113563655       -2.4846873184        0.5418433838
 C          3.6749164259       -3.7371271754        0.7989254844
 C          5.0262001293       -3.8687325329        1.0550748339
 C          5.8617043139       -2.7479842789        1.0832282462
 C          7.3306429817       -2.9255809053        1.4256250984
 C          7.9719301652       -3.8867898379        0.4142854280
 C          7.4431844663       -3.5120532584        2.8402480205
 C          8.1122888252       -1.6098932567        1.3883490926
 C          5.3005886286       -1.5185589951        0.7775689140
 C          3.9491743069       -1.3357684891        0.4464814385
 B          3.3167014953       -0.0047508945        0.0016848272
 C          3.9552650934        1.3263245688       -0.4337660459
 C          5.3123886283        1.5120482451       -0.7390290293
 C          5.8743254153        2.7409170725       -1.0458623145
 C          7.3495346146        2.9214676939       -1.3588720796
 C          8.1374079390        1.6111776236       -1.2822888944
 C          7.4898732264        3.4851758962       -2.7802449820
 C          7.9630592256        3.9030562801       -0.3498251103
 C          5.0331717251        3.8576986164       -1.0508987194
 C          3.6777980992        3.7229337765       -0.8186263102
 C          3.1159917388        2.4716546199       -0.5526940934
 N          1.7491840782        2.3736166519       -0.3969552791
 C          0.9466585236        3.5441960981       -0.3578602348
 C          0.5791261349        4.2187533089       -1.5166221862
 C         -0.3034701723        5.2774445291       -1.4458613116
 C         -0.8432591860        5.7019745154       -0.2323061615
 C         -1.8770667929        6.8143501438       -0.2212139081
 C         -1.2899818643        8.0749514016       -0.8696954546
 C         -3.1003239200        6.3325988266       -1.0155041320
 C         -2.3372978437        7.1751914687        1.1932315199
 C         -0.4305597931        5.0448287450        0.9213454758
 C          0.4479621443        3.9793330782        0.8630838931
 C          1.0698041270        1.1780519248       -0.2240324626
 C         -0.3217454982        1.1652864793       -0.2998049764
 C         -1.0293505558       -0.0029632380        0.0015355062
 N         -2.4240981626        0.0019492463        0.0134504257
 C         -3.2450687667       -0.9990047130       -0.4700675756
 C         -2.9367945155       -2.1888882319       -1.1135860427
 C         -3.9758725785       -3.0063528586       -1.5075959040
 C         -5.3244855067       -2.6834102780       -1.2960152268
 C         -6.3953935785       -3.6554876142       -1.7688527834
 C         -7.8113206328       -3.1739269453       -1.4414098154
 C         -6.2868164763       -3.8196871539       -3.2915992441
 C         -6.1869882381       -5.0152083838       -1.0874826549
 C         -5.6244447725       -1.4791947056       -0.6840243215
 C         -4.5980990709       -0.6345562298       -0.2772151436
 C         -4.5870633834        0.6548589188        0.3469821896
 C         -5.5987750709        1.5063119455        0.7755240970
 C         -5.2779200919        2.7074483773        1.3831223179
 C         -6.3321577016        3.6872965822        1.8770388598
 C         -7.7584281185        3.2058489416        1.5980777049
 C         -6.1793393254        3.8701512126        3.3938227579
 C         -6.1394599158        5.0378798856        1.1730366276
 C         -3.9229827353        3.0214180437        1.5659725422
 C         -2.8980930261        2.1966032521        1.1505773926
 C         -3.2277490565        1.0091154823        0.5130963711
 C         -0.3222940952       -1.1733902518        0.2922301749
 C          1.0688261128       -1.1883833950        0.2053525369
 C          1.8054973430       -0.0051780756       -0.0075876803
 C          0.4189801169       -3.9369069228       -0.9306629969
 C         -0.4566041984       -5.0021152032       -1.0188110197
 H         -2.8040065276       -6.2559628551        1.9571038491
 H         -3.4691313870       -5.4439022670        0.5423998409
 H         -3.8674070834       -7.1362155485        0.8614511146
 H         -0.9605972848       -7.9825575435        1.6844440214
 H         -0.3968926368       -8.4160365116        0.0717559370
 H         -1.9996341869       -8.9191295438        0.6160239214
 H         -3.0938237670       -7.9309109712       -1.3157425368
 H         -1.5399055076       -7.4447916146       -1.9857153086
 H         -2.8374853721       -6.2548871883       -1.7849902250
 H         -0.5414927606       -5.8737258578        2.2328478867
 H          1.0107668354       -3.9978207001        2.3910531197
 H          3.0534385168       -4.6196334852        0.8054463716
 H          5.4176930839       -4.8551168582        1.2492191626
 H          9.0306284428       -4.0098449657        0.6332816407
 H          7.8708121556       -3.4910983712       -0.5942949381
 H          7.5022681951       -4.8656741561        0.4446538559
 H          8.4888235935       -3.6489891304        3.1082887716
 H          6.9438008724       -4.4744295837        2.9087963526
 H          6.9859907011       -2.8383748680        3.5621328238
 H          8.0902864416       -1.1766244304        0.3917196584
 H          7.7085189930       -0.8942054558        2.1004626787
 H          9.1516334056       -1.7973171384        1.6511817275
 H          5.9132731704       -0.6370777879        0.7997226079
 H          5.9290545670        0.6331075292       -0.7410997142
 H          9.1819149224        1.8009240134       -1.5220911394
 H          7.7557198166        0.8823118071       -1.9932394866
 H          8.0930043716        1.1929961022       -0.2799424590
 H          7.0502584875        2.7981992876       -3.5005288180
 H          6.9887090422        4.4444258346       -2.8747869212
 H          8.5404752929        3.6217262804       -3.0284946817
 H          7.8409009398        3.5242648847        0.6629031325
 H          9.0258834269        4.0273856558       -0.5469332045
 H          7.4900742811        4.8791405074       -0.4076855133
 H          5.4236989597        4.8431362738       -1.2517618193
 H          3.0513989580        4.6016228849       -0.8503669903
 H          0.9691611385        3.8909387778       -2.4691862611
 H         -0.5890817216        5.7672175660       -2.3637912857
 H         -1.0067237746        7.8969470110       -1.9030696503
 H         -2.0230456154        8.8783719058       -0.8532654927
 H         -0.4068042347        8.4022977949       -0.3247547672
 H         -3.4786837349        5.4041682452       -0.5929868856
 H         -2.8482549151        6.1541987165       -2.0570224520
 H         -3.8903538664        7.0791270625       -0.9780530048
 H         -1.5048221421        7.5242537110        1.7998071922
 H         -3.0749802100        7.9732741467        1.1420943196
 H         -2.8004795403        6.3211779280        1.6805253085
 H         -0.7993587904        5.3455852024        1.8874057706
 H          0.7437453072        3.4645854749        1.7660794186
 H         -0.8700464918        2.0442641630       -0.5917761151
 H         -1.9179595022       -2.4742906110       -1.3199828223
 H         -3.7259630914       -3.9285389522       -2.0083505758
 H         -7.9423085119       -3.0509941834       -0.3688428945
 H         -8.5343993812       -3.9098198931       -1.7875612373
 H         -8.0281424143       -2.2312898166       -1.9381474561
 H         -6.4144109589       -2.8571634570       -3.7824628171
 H         -5.3185471209       -4.2207926851       -3.5779265892
 H         -7.0574582047       -4.4975044470       -3.6529435150
 H         -5.2270857172       -5.4468139435       -1.3526127569
 H         -6.2259013715       -4.9033749764       -0.0058527085
 H         -6.9669825990       -5.7104595325       -1.3911351361
 H         -6.6417930917       -1.1696142353       -0.5146236883
 H         -6.6215337337        1.2043967202        0.6259865356
 H         -7.9589874387        2.2649750645        2.1050508096
 H         -7.9251827982        3.0791733455        0.5308828162
 H         -8.4693076540        3.9435320303        1.9653168200
 H         -5.2022698460        4.2714081902        3.6480424367
 H         -6.9370624753        4.5554909447        3.7680115462
 H         -6.2963728551        2.9145652240        3.9004691725
 H         -5.1684760601        5.4663830679        1.4014406435
 H         -6.9051776880        5.7411775437        1.4939499955
 H         -6.2142706455        4.9139314137        0.0944621885
 H         -3.6559338491        3.9420698101        2.0609871732
 H         -1.8732129370        2.4743393883        1.3370506671
 H         -0.8686058903       -2.0521202811        0.5890583198
 H          0.6938687981       -3.3805775916       -1.8155010594
 H         -0.8449296400       -5.2603050178       -1.9895644315
