50
 energy: -69.428187262163 gnorm: 0.000049454686 xtb: 6.7.1 (edcfbbe)
C           -3.40129864303720        2.10814602061305       -1.25482546020913
C           -2.88780514174876        1.38330468449800        0.00764271445518
C           -3.40225188374106        2.11220366564374        1.26735731559357
C           -3.45230242216678       -0.01767640383842        0.01095791085238
C           -4.81123135790617       -0.25492410600926        0.01114587369394
C           -5.33235885527447       -1.54479033063652        0.02113912908889
C           -4.46573483425762       -2.64339056968407        0.03368280967574
C           -3.11267537011103       -2.44453311934654        0.03353413782889
C           -2.58119852084953       -1.13522684219624        0.02008166792457
N           -1.23337771919000       -0.97163360446715        0.01394462965414
C           -0.56086420238281        0.21343584740829        0.00163204534325
C           -1.38170322813348        1.43412819978717        0.00699699065958
C           -0.72289145568199        2.65331059805397        0.00713218646495
C            0.64495741317847        2.73669557914499        0.00368950455194
C            1.44363477331079        1.52291921351378       -0.00578765670689
C            0.84281633221058        0.27549761623797       -0.01032574619497
C            1.69976513709863       -0.98942791448202       -0.06144268973361
C            1.34199165194577       -1.93679987899915        1.11621117738356
C            1.48494439089005       -1.67286920275988       -1.43172209239127
C            3.18940005440935       -0.68160853011516        0.01557442748036
C            4.11146988398596       -1.71139934025964        0.04204251297441
C            5.47952595685379       -1.47200799481619        0.07989263594515
C            5.95189082471660       -0.16170512156906        0.08979932750303
C            5.06233177241094        0.88340523576164        0.06202967117966
C            3.68007507484567        0.63865433168528        0.02202935927801
N            2.80032829266668        1.67917836096396       -0.00724950508932
H           -4.48730296708361        2.11799678766785       -1.27448374424942
H           -3.04402055208758        1.59454595552167       -2.14493617674123
H           -3.04777895766892        3.13479356750372       -1.28349994510662
H           -4.48825790446675        2.12114011985852        1.28677628433818
H           -3.04975320733614        3.13928687257811        1.29278542740362
H           -3.04504732100614        1.60205465436346        2.15954624602056
H           -5.50300192190776        0.57465501625055        0.00427004324167
H           -6.40006424393418       -1.69634484428498        0.02066947926579
H           -4.86821339066964       -3.64549686124244        0.04344061508666
H           -2.42835531865843       -3.28239989913841        0.04315650485769
H           -0.68504364790293       -1.81764335780900        0.04249330165945
H           -1.29202246153307        3.57114042144813        0.00955950243602
H            1.15199696664004        3.68857202789272        0.00308540956708
H            0.63786287861845       -1.46521441761570        1.79847306713179
H            2.23315785824466       -2.16975714586566        1.69436583769625
H            0.92687065308695       -2.88282820354673        0.76986087739854
H            2.01793260906281       -2.61974074851857       -1.47340050858860
H            0.43685457819367       -1.85468813214951       -1.65432898642728
H            1.88002456978722       -1.02872029018938       -2.21544725741014
H            3.76903815838470       -2.73619624386366        0.03354082333497
H            6.17133687050441       -2.29957503622816        0.09901965749979
H            7.01402683974806        0.03083238421031        0.11956536203754
H            5.40968447766110        1.90751178883134        0.07064917639721
H            3.16866330636526        2.61911759429167        0.00343520621329
