50
 energy: -69.428187830351 gnorm: 0.000066160163 xtb: 6.7.1 (edcfbbe)
C           -3.39597205271627        2.09700460337900       -1.26719630060670
C           -2.89122537008999        1.37712514912782        0.00166870766086
C           -3.41749198526291        2.10872405555378        1.25485232604461
C           -3.45267105787603       -0.02507186743436        0.00526389503661
C           -4.81101202128332       -0.26534132351402       -0.00487338297387
C           -5.32939542384581       -1.55631338065515        0.00706410401664
C           -4.46049387728061       -2.65294709629654        0.03285847697364
C           -3.10794071063522       -2.45110978307823        0.04285048085908
C           -2.57918872583113       -1.14068863924436        0.02646075909963
N           -1.23175694100879       -0.97411015832190        0.02769860552012
C           -0.56184794235457        0.21232146238646        0.00975305877637
C           -1.38525723817386        1.43127419250658        0.01167112552451
C           -0.72910837811146        2.65172923607591        0.01633790901867
C            0.63869555422937        2.73796847857097        0.01628800636156
C            1.43989611948388        1.52593307131501        0.00220367180664
C            0.84185287444360        0.27733432434437       -0.00358870511957
C            1.70116292660389       -0.98587935332769       -0.05728028688441
C            1.35209602385225       -1.93155354968028        1.12438550593126
C            1.47986337845050       -1.67277427551839       -1.42476345806015
C            3.19057701347971       -0.67474342489809        0.01068177143356
C            4.11510193539620       -1.70253627318851        0.02961511430736
C            5.48282594966026       -1.46018560298231        0.05891414763868
C            5.95237195936530       -0.14889665985873        0.06792924145431
C            5.06030968884007        0.89428096299242        0.04818685384242
C            3.67839374065555        0.64652842207849        0.01683926572376
N            2.79624359095510        1.68523810105657       -0.00427902853712
H           -4.48180836710804        2.10596410030493       -1.29503605790956
H           -3.03160614097444        1.58055358324038       -2.15277564435330
H           -3.04283685706130        3.12377679001011       -1.29677565128364
H           -4.50363752338920        2.11392758491828        1.26601819986727
H           -3.06892232814708        3.13715325373342        1.27939687923943
H           -3.06533859685283        1.60292025089485        2.15150683124698
H           -5.50451056581518        0.56265364996820       -0.02161620838712
H           -6.39672193270010       -1.71025222399424       -0.00181129289346
H           -4.86089228579473       -3.65586306363837        0.04450825342158
H           -2.42190068344804       -3.28740288167775        0.06228033928591
H           -0.68161768199292       -1.81864627154334        0.06423075726926
H           -1.30010599723903        3.56839724954418        0.01896291351443
H            1.14371055795947        3.69090719644440        0.01973768367568
H            0.93375579373055       -2.87784726576544        0.78266336763637
H            0.65355475991473       -1.45843671496622        1.81135235804845
H            2.24763394847323       -2.16435505619893        1.69581500158855
H            0.43095010870882       -1.85751436293781       -1.64077702958822
H            1.86887334733515       -1.02946292457894       -2.21218782864410
H            2.01464299432609       -2.61856149251028       -1.46754155032263
H            3.77490443064743       -2.72808134023336        0.02191785710214
H            6.17656687159878       -2.28625710044901        0.07205120470478
H            7.01425485687530        0.04596893579532        0.09071209698245
H            5.40543976660183        1.91914036987721        0.05639336560326
H            3.16255896836136        2.62594951615261        0.00690641971269
