50
 energy: -69.537648172521 gnorm: 0.000054888773 xtb: 6.7.1 (edcfbbe)
C           -3.40412979186306        1.85813319119192       -1.26234502007041
C           -2.84191752168450        1.17936286380834        0.00012827406046
C           -3.40403632034144        1.85814441596744        1.26263748666289
C           -3.28416743712641       -0.27074638899471        0.00015506475867
C           -4.62932837634830       -0.60909242938095        0.00012153985843
C           -5.04743039006328       -1.92843284469794        0.00014462551942
C           -4.10903181902845       -2.94627594396685        0.00020378590266
C           -2.76573702011008       -2.63558899879011        0.00028509487193
C           -2.34653879330501       -1.30424837587160        0.00028228649893
N           -1.00051853753044       -1.03515125118263        0.00038765200753
C           -0.45453723878413        0.23118636999715        0.00014257076747
C           -1.32721517851545        1.32800913751278        0.00006548349299
C           -0.78140965890696        2.60232398576276       -0.00004110154771
C            0.58004737989480        2.79885936837338       -0.00012875947662
C            1.44339309886270        1.70615664421054       -0.00015358319828
C            0.94405007625845        0.40362538858094       -0.00000191458533
C            1.89422740012294       -0.79002660350136       -0.00017469698399
C            1.68722897366442       -1.61540343769708        1.29529858558894
C            1.68776147787773       -1.61430868133448       -1.29633673082652
C            3.35929127116203       -0.37548512300990        0.00001957241628
C            4.35049066962584       -1.34639282765760        0.00030884217116
C            5.69341701126259       -1.01219914150012        0.00028764227492
C            6.07008925240714        0.32031987025670        0.00006819648950
C            5.10344108779444        1.30364790326982       -0.00010492942709
C            3.75023227210917        0.96410092965762       -0.00016075964824
N            2.79796995812430        1.94948582046042       -0.00035756007654
H           -4.48783147478672        1.78329977163716       -1.29099260235838
H           -3.00265508529996        1.37491451559687       -2.15116022933376
H           -3.13432402724172        2.91003689888226       -1.29270444556905
H           -3.00252213292805        1.37491618826049        2.15143022317749
H           -4.48773827908449        1.78333469589617        1.29135083824885
H           -3.13419705391470        2.91004038865600        1.29298176258035
H           -5.37714909380622        0.16984482000624        0.00008973142172
H           -6.10181159297802       -2.15995198129617        0.00012283126837
H           -4.42345761194906       -3.97946951698827        0.00019923426834
H           -2.02193743782860       -3.42096140996670        0.00031607162789
H           -0.38565139067909       -1.83031743398485        0.00087046709811
H           -1.42612692492054        3.46723632734017       -0.00003302023953
H            0.99002544549459        3.79844292447077       -0.00019886991834
H            1.96685924148485       -2.65653367901143        1.14976687939267
H            0.66691154225598       -1.57626761816255        1.66565422304143
H            2.32249024571140       -1.20612662237512        2.07934611653276
H            2.31884886677018       -1.20051661325729       -2.08133425555653
H            1.97313660451436       -2.65416220236701       -1.15311312581465
H            0.66632921066919       -1.57996929850650       -1.66393135333824
H            4.07370764460371       -2.38947348447854        0.00061454039146
H            6.44230113665150       -1.78957661340748        0.00046209806898
H            7.11519324205762        0.59226172987495        0.00009196125269
H            5.38210954632444        2.34838865410054       -0.00019388947950
H            3.10184953330999        2.91060371760404       -0.00036683426811
