50
 energy: -69.538384113105 gnorm: 0.000032329197 xtb: 6.7.1 (edcfbbe)
C           -3.38785363548852        2.09386552602455       -1.25222350660926
C           -2.87989284139294        1.37397486619293        0.01042229169463
C           -3.38576046509143        2.09624124927902        1.27265250734410
C           -3.43484012124350       -0.03690503139630        0.01317811270059
C           -4.80235180913194       -0.26832939448364        0.02175229234546
C           -5.32295269392275       -1.55072248720490        0.02872890565141
C           -4.46746025781544       -2.63914419502843        0.02861165241141
C           -3.10394237545858       -2.43501117360987        0.01919367735491
C           -2.58100818603551       -1.14085682404693        0.00986724604474
N           -1.21872808211943       -0.97782431952072       -0.00768278144797
C           -0.57538270662397        0.24008219056956       -0.00264406197048
C           -1.35820647904389        1.40289987435535        0.00816702644191
C           -0.71310691018113        2.62970409656020        0.01131864918695
C            0.65971873335588        2.71631443683109        0.00392571663401
C            1.43299452282042        1.55816445771377       -0.01262301214700
C            0.83227385404865        0.29908472589680       -0.01341707649817
C            1.68619854130171       -0.96630640179474       -0.06208005041041
C            1.33377635202375       -1.90561885277621        1.12361981833496
C            1.47270315507437       -1.64852504934377       -1.43304400804927
C            3.17730298944446       -0.66662152644321        0.01219778199703
C            4.09041694627566       -1.71134497548340        0.04780097104153
C            5.45466061261750       -1.48374324048686        0.08675939106329
C            5.93449187090964       -0.18467958959194        0.09121971232123
C            5.04805395467133        0.87056426821516        0.05619682770179
C            3.67288306340623        0.63772138498073        0.01262772034382
N            2.80248692682044        1.69457013941061       -0.03103664350427
H           -4.47412309531004        2.10232247174525       -1.28127252472092
H           -3.02417180182958        1.58119023776169       -2.14077133247398
H           -3.03781966263703        3.12192717662846       -1.28222539899158
H           -4.47194113837650        2.10844894124593        1.30154730046151
H           -3.03295652522330        3.12328345069355        1.30257666524170
H           -3.02422065039012        1.58295789889740        2.16178565956481
H           -5.48667006716762        0.56697303956574        0.02329861673328
H           -6.39225877383962       -1.69863458035606        0.03502220034424
H           -4.86212686381704       -3.64442402064183        0.03567215177584
H           -2.42461646375926       -3.27680160721864        0.01899628080804
H           -0.66622381672684       -1.81598453706148        0.02351556567489
H           -1.28658823495450        3.54336422832024        0.01948779859229
H            1.14870808648666        3.67970604772831        0.00752114720070
H            0.57765271978233       -1.46213004259960        1.76770193383273
H            2.21325274491923       -2.07310275151101        1.74164695060551
H            0.98644078539975       -2.88043594294712        0.78331254338957
H            1.97945155883698       -2.61010086169301       -1.46650526394001
H            0.42298706560872       -1.79899963136056       -1.67002059666258
H            1.89667212553266       -1.01668702467458       -2.21190661438883
H            3.73349798671642       -2.73082414605317        0.04623105369787
H            6.13969071762599       -2.31754823213063        0.11218996903156
H            6.99717873646242        0.00460966848191        0.12232544513539
H            5.40709289642720        1.89043658027097        0.06050549223120
H            3.18065139916095        2.62879132914141       -0.01039245826945
