  121
       -168.81614995
 C        -10.6582269469       -5.3388161582        1.1402917695
 C        -10.8843948130       -4.4104499958       -0.0616004455
 C        -10.7113563058       -5.1983933082       -1.3680449720
 C        -12.3267246676       -3.8995649562       -0.0019058114
 C         -9.8632370510       -3.2838893095       -0.0196931489
 C         -8.4996468951       -3.6028358582       -0.0620022624
 C         -7.5034244468       -2.6482323175       -0.0219741388
 C         -7.8796094766       -1.3168030226        0.0772224957
 C         -9.2469620633       -0.9680085254        0.0879993596
 C        -10.2279203776       -1.9471048337        0.0445078120
 C         -9.3001353978        0.4691444754        0.1281387488
 C        -10.3510255423        1.3725435570        0.1764828096
 C        -10.0858848402        2.7326599261        0.2386096263
 C        -11.1874748954        3.7803882811        0.2844720230
 C        -12.5882806938        3.1643321704        0.2287185745
 C        -11.0339866244        4.7233612565       -0.9174868787
 C        -11.0688698814        4.5783989778        1.5908407572
 C         -8.7494924968        3.1519497699        0.2747686845
 C         -7.6850332424        2.2743139973        0.2292679813
 C         -7.9625252058        0.9187203444        0.1315911454
 N         -7.1098703009       -0.1690331023        0.1027975562
 C         -5.7199953775       -0.1183324157        0.0926500721
 C         -5.0421417478        0.7752356174       -0.7448209815
 C         -3.6719799638        0.8167002736       -0.7591340490
 C         -2.8963243644       -0.0331272326        0.0582119682
 C         -1.4653460157        0.0009649769        0.0245539934
 C         -0.6811178169       -1.0859569547        0.5105374030
 C          0.6796642144       -1.0879230619        0.5067806086
 C          1.4653125015       -0.0022936892        0.0191064606
 C          2.8961023017       -0.0390662271        0.0490197445
 C          3.6012108990       -0.9412564123        0.8762154919
 C          4.9721993920       -0.9827310870        0.8911034874
 C          5.7207725549       -0.1227746966        0.0801480951
 N          7.1106359718       -0.1707304674        0.0909781268
 C          7.8824994236       -1.3159866789        0.0372713768
 C          7.5085530284       -2.6443360898       -0.1029424781
 C          8.5063604207       -3.5959028197       -0.1672030072
 C          9.8692641469       -3.2764155054       -0.1081423190
 C         10.8923290067       -4.3999282431       -0.1772325525
 C         10.6535588939       -5.3694439917        0.9891895195
 C         12.3331090076       -3.8899550339       -0.0826777312
 C         10.7355569998       -5.1425673545       -1.5118776217
 C         10.2317393495       -1.9416318673       -0.0028890985
 C          9.2491358935       -0.9654863084        0.0643237853
 C          9.2995239436        0.4701410003        0.1446220837
 C         10.3482756262        1.3737717963        0.2258443725
 C         10.0800469046        2.7310418198        0.3246515220
 C         11.1791538450        3.7788210259        0.4111091896
 C         12.5817087551        3.1667402801        0.3550976716
 C         11.0440176091        4.5409558554        1.7371785717
 C         11.0378566741        4.7537945850       -0.7665221596
 C          8.7425447159        3.1471041595        0.3611015371
 C          7.6801711923        2.2692539163        0.2842474598
 C          7.9611502016        0.9172371848        0.1527282969
 C          5.0416830895        0.7873934803       -0.7380621381
 C          3.6715289677        0.8266695265       -0.7522513654
 C          0.7235903677        1.0915462179       -0.5030192962
 N          1.2255557440        2.2173642239       -0.9970133668
 S         -0.0011504420        3.2091325408       -1.4406918387
 N         -1.2266956510        2.2182181229       -0.9941111470
 C         -0.7236658838        1.0921860104       -0.5013294760
 C         -3.5994526938       -0.9181098876        0.9047440695
 C         -4.9705470208       -0.9591791287        0.9224884705
 H        -10.7624677051       -4.7823301306        2.0694970194
 H        -11.3911156030       -6.1427795760        1.1352279141
 H         -9.6670353889       -5.7829383011        1.1190081601
 H        -11.4512556249       -5.9938025139       -1.4260257536
 H         -9.7243062641       -5.6473030972       -1.4341436367
 H        -10.8439452003       -4.5399967473       -2.2240907985
 H        -12.5520807201       -3.2621949834       -0.8538139394
 H        -12.5084073953       -3.3467094256        0.9169083479
 H        -13.0113963986       -4.7448519817       -0.0258825640
 H         -8.2006519061       -4.6371138388       -0.1353998204
 H         -6.4654928415       -2.9374261648       -0.0833879745
 H        -11.2611101966       -1.6438122062        0.0556658777
 H        -11.3589752517        0.9935655828        0.1710723832
 H        -12.7301699497        2.5973715716       -0.6885228109
 H        -12.7646977915        2.5141752182        1.0825716185
 H        -13.3334075897        3.9569005717        0.2518175382
 H        -10.0782338187        5.2392915240       -0.8987316247
 H        -11.8242270685        5.4709905601       -0.9098281561
 H        -11.0994773120        4.1610306148       -1.8466928713
 H        -11.1486295912        3.9115528831        2.4469358992
 H        -10.1177748870        5.0995235462        1.6531743029
 H        -11.8658350155        5.3163444478        1.6521942014
 H         -8.5277033821        4.2054158927        0.3464564885
 H         -6.6713505418        2.6399984769        0.2837079007
 H         -5.6094856852        1.4063599285       -1.4121728981
 H         -3.1598241133        1.4970483370       -1.4189219818
 H         -1.1920003008       -1.9702308162        0.8579267470
 H          1.1887156275       -1.9741369194        0.8515801226
 H          3.0623606900       -1.5855176653        1.5528259122
 H          5.4861454136       -1.6538782088        1.5635839276
 H          6.4711670079       -2.9325400407       -0.1771693764
 H          8.2094694976       -4.6278977870       -0.2736387151
 H          9.6664008185       -5.8201159463        0.9363800108
 H         11.3927282777       -6.1674305634        0.9696890790
 H         10.7379306789       -4.8435863873        1.9381480237
 H         12.5687365207       -3.2254886664       -0.9107875060
 H         12.5020653044       -3.3665441602        0.8556558066
 H         13.0192265205       -4.7333826399       -0.1249109860
 H          9.7473131098       -5.5837438879       -1.6080005903
 H         11.4726532278       -5.9393223621       -1.5852938459
 H         10.8842400878       -4.4565275469       -2.3432889834
 H         11.2643561328       -1.6371848709        0.0216367108
 H         11.3569371029        0.9967388616        0.2166071900
 H         12.7366274942        2.6281307412       -0.5769772970
 H         12.7481386491        2.4911521606        1.1910050839
 H         13.3250066035        3.9593062252        0.4121051870
 H         11.1159761433        3.8514316750        2.5757108415
 H         11.8383324454        5.2787608510        1.8273208549
 H         10.0910581240        5.0581149021        1.8029486566
 H         11.8252137153        5.5033480936       -0.7281317103
 H         11.1174106030        4.2172740454       -1.7096283248
 H         10.0801542110        5.2658275908       -0.7461608784
 H          8.5184387613        4.1979848840        0.4588281684
 H          6.6652658532        2.6312447373        0.3408013409
 H          5.6083262562        1.4339721891       -1.3911368400
 H          3.1588835975        1.5197229582       -1.3982650392
 H         -3.0586323214       -1.5468150745        1.5943985565
 H         -5.4835142789       -1.6147550812        1.6107979744
