  79
  -125.244442030900       0.446176329819268      !
 C         -6.0737436145       -4.8107026185       -0.4993433775
 C         -6.7528151286       -3.6034084725       -0.5572744564
 C         -6.0553216706       -2.4126028366       -0.5216821286
 C         -4.6633313920       -2.4183885865       -0.4279889334
 C         -3.9275309060       -1.1603096484       -0.3890720896
 N         -4.6330108454       -0.0128456447       -0.4237656168
 C         -3.9295401774        1.1357533925       -0.3626449162
 C         -4.6630006564        2.3946032777       -0.3657593456
 C         -6.0536275215        2.3972044198       -0.4796021192
 C         -6.7466569495        3.5910825106       -0.4781054315
 C         -6.0650074572        4.7929249030       -0.3619090843
 C         -4.6823772552        4.7967296380       -0.2473307566
 C         -3.9825445357        3.6076823508       -0.2493200628
 N         -2.6252112284        1.1615850863       -0.2938660974
 C         -1.9479540370       -0.0125222516       -0.2748562372
 C         -0.5341817111       -0.0086101608       -0.1762637078
 C          0.1811251802        1.2056980425       -0.1265878529
 C          1.5532656823        1.2041752812        0.0257603809
 N          2.2410733586        2.4247241745        0.1209754450
 C          3.3694464485        2.7836656350       -0.5835059217
 C          4.0506504295        2.0928241796       -1.5762765785
 C          5.1556814742        2.6967007693       -2.1449194433
 C          5.5738255681        3.9645556719       -1.7485748405
 C          4.8831404433        4.6715126559       -0.7812887524
 C          3.7719253271        4.0840047031       -0.1957773563
 C          2.8273551463        4.5218625347        0.7960291057
 C          2.6968009082        5.6828007293        1.5431333888
 C          1.6516811221        5.7752678217        2.4439702774
 C          0.7554039497        4.7226347428        2.6134457570
 C          0.8667650753        3.5549469567        1.8827056710
 C          1.8991508774        3.4660253633        0.9578230808
 C          2.2648922796        0.0039309315        0.1177600740
 C          1.5622117864       -1.2026895585        0.0397342583
 N          2.2589383987       -2.4164431403        0.1517092795
 C          3.3923875836       -2.7749769045       -0.5446827839
 C          4.0704699789       -2.0913937008       -1.5444694499
 C          5.1820941418       -2.6933360755       -2.1022007510
 C          5.6096721359       -3.9522638198       -1.6882119980
 C          4.9221354198       -4.6524490004       -0.7138068568
 C          3.8042815812       -4.0668879258       -0.1392164469
 C          2.8599579327       -4.4999769533        0.8550131277
 C          2.7358891405       -5.6529282686        1.6155102344
 C          1.6883579083       -5.7428952009        2.5139050771
 C          0.7837883749       -4.6950878070        2.6682348315
 C          0.8885863763       -3.5353183162        1.9239078228
 C          1.9228717034       -3.4497081780        1.0008123386
 C          0.1902455099       -1.2166828069       -0.1146127582
 N         -2.6232290679       -1.1890109293       -0.3167886971
 C         -3.9854953507       -3.6368142489       -0.3695279707
 C         -4.6896518344       -4.8229222431       -0.4050687814
 H         -6.6216176982       -5.7412141302       -0.5273584381
 H         -7.8306686425       -3.5940742182       -0.6303246937
 H         -6.5684135056       -1.4643960363       -0.5653494946
 H         -6.5688260411        1.4533570343       -0.5689772115
 H         -7.8233530407        3.5890136338       -0.5672400339
 H         -6.6099949757        5.7255119186       -0.3598607881
 H         -4.1515813426        5.7333129889       -0.1556366054
 H         -2.9071043344        3.5952028034       -0.1594227139
 H         -0.3614479270        2.1313517335       -0.2296748256
 H          3.7188763827        1.1209798350       -1.9054562567
 H          5.7044042437        2.1760288445       -2.9154968872
 H          6.4439911591        4.4029683097       -2.2136532932
 H          5.1964742401        5.6623246381       -0.4893601580
 H          3.3989752694        6.4937724858        1.4229388540
 H          1.5306174369        6.6719334176        3.0331060959
 H         -0.0421003694        4.8189961963        3.3349439006
 H          0.1787886015        2.7374081061        2.0327778882
 H          3.3280759417        0.0090319337        0.2961412341
 H          3.7314399954       -1.1268539525       -1.8873444804
 H          5.7280760965       -2.1784764003       -2.8785888133
 H          6.4845228185       -4.3895195511       -2.1454488393
 H          5.2430550530       -5.6366263680       -0.4080465327
 H          3.4447656028       -6.4597290919        1.5071536903
 H          1.5714451441       -6.6338133543        3.1125013476
 H         -0.0157089649       -4.7891568849        3.3878486927
 H          0.1937533314       -2.7215364978        2.0622783446
 H         -0.3454664090       -2.1473869811       -0.2076216326
 H         -2.9088746569       -3.6313221244       -0.2956049254
 H         -4.1614303992       -5.7642407944       -0.3587971740
  79
  -125.244006304200       0.281358733269009      !
 C         -5.9972304256       -4.8351199627       -0.8165333233
 C         -6.6682588491       -3.6377908777       -1.0127049241
 C         -5.9864059842       -2.4396843956       -0.9388239070
 C         -4.6178443181       -2.4283246581       -0.6674991989
 C         -3.8952384123       -1.1646975991       -0.5954699016
 N         -4.5915695944       -0.0227851307       -0.7593924757
 C         -3.8947092777        1.1292622859       -0.6928533256
 C         -4.6202514162        2.3826186742       -0.8534979537
 C         -6.0017123843        2.3734547635       -1.0494488206
 C         -6.6892133696        3.5619648932       -1.1925895807
 C         -6.0108333889        4.7702017391       -1.1431478778
 C         -4.6369974952        4.7856990755       -0.9503849473
 C         -3.9428812432        3.6021260978       -0.8060341693
 N         -2.6047584770        1.1638912350       -0.4877209231
 C         -1.9374170831       -0.0044156672       -0.3224166634
 C         -0.5386266467        0.0041133333       -0.0885495997
 C          0.1785735299        1.2175128408       -0.0390704064
 C          1.5375762522        1.2144789997        0.1963261019
 N          2.2375140803        2.4329766088        0.2549044360
 C          2.2509965643        3.3978040469       -0.7264955199
 C          1.6345883177        3.3963111510       -1.9707816733
 C          1.8399898956        4.4899839649       -2.7903150048
 C          2.6414834010        5.5571377168       -2.3907621265
 C          3.2670721082        5.5581265215       -1.1570406230
 C          3.0750981554        4.4728151214       -0.3153553791
 C          3.5634190820        4.1312041278        0.9937907838
 C          4.3739046327        4.7788729219        1.9138311169
 C          4.6256946556        4.1599389893        3.1250309567
 C          4.0746146678        2.9164133440        3.4257708026
 C          3.2660816061        2.2497744419        2.5249127428
 C          3.0218055356        2.8600501473        1.3017511247
 C          2.2338272413        0.0184662132        0.3894736685
 C          1.5270181341       -1.1856715164        0.3334454941
 N          2.2190789418       -2.3981298620        0.4995788784
 C          3.3173201656       -2.8009944840       -0.2260232044
 C          3.9703273647       -2.1561124390       -1.2681109822
 C          5.0418887983       -2.8028246796       -1.8541022751
 C          5.4552267470       -4.0611215279       -1.4228093885
 C          4.7986204584       -4.7150300410       -0.3959108992
 C          3.7194057333       -4.0871921446        0.2074346706
 C          2.8078699634       -4.4651966631        1.2538790123
 C          2.6962370388       -5.5804226626        2.0704545025
 C          1.6822349743       -5.6128347665        3.0106840462
 C          0.7934063817       -4.5488449505        3.1470202529
 C          0.8847607161       -3.4259977009        2.3465997161
 C          1.8922787043       -3.3944847117        1.3913993418
 C          0.1676122055       -1.2019321930        0.0998865611
 N         -2.6071827632       -1.1823565413       -0.3769758862
 C         -3.9481178879       -3.6368524140       -0.4702891264
 C         -4.6366961246       -4.8301568277       -0.5448323745
 H         -6.5330210985       -5.7712038220       -0.8752866452
 H         -7.7276975386       -3.6422883742       -1.2243399810
 H         -6.4934721989       -1.4993444533       -1.0901198520
 H         -6.5148035547        1.4248729814       -1.0836689405
 H         -7.7590586146        3.5504883176       -1.3425723805
 H         -6.5511640196        5.6987953164       -1.2550432578
 H         -4.1088871370        5.7273924358       -0.9126284651
 H         -2.8742680011        3.5987023894       -0.6552957341
 H         -0.3555480937        2.1452728212       -0.1663934662
 H          1.0213836201        2.5663959069       -2.2872427268
 H          1.3719355914        4.5165007365       -3.7630158921
 H          2.7787710392        6.3931048046       -3.0603166320
 H          3.8954509430        6.3822279930       -0.8547860370
 H          4.7918881190        5.7486060459        1.6897625241
 H          5.2524375053        4.6493496679        3.8554362212
 H          4.2804367524        2.4657047166        4.3852258381
 H          2.8291305788        1.2929259868        2.7669866978
 H          3.2956866532        0.0251061017        0.5766730085
 H          3.6433232936       -1.1885425954       -1.6171959146
 H          5.5674277032       -2.3242160844       -2.6669722216
 H          6.2969635862       -4.5340090580       -1.9061339789
 H          5.1131570705       -5.6958964308       -0.0731222402
 H          3.3900194479       -6.4018442734        1.9747397571
 H          1.5784580037       -6.4726239018        3.6555325247
 H          0.0178434660       -4.6015335717        3.8964673621
 H          0.2006064587       -2.5993227054        2.4620561891
 H         -0.3683185276       -2.1351318008        0.0358921168
 H         -2.8897220070       -3.6175139385       -0.2602233333
 H         -4.1143998182       -5.7634702212       -0.3917232919
  79
  -125.243975950100       0.272464936911723      !
 C         -6.0515059800       -4.8040134523       -0.4386384080
 C         -6.7101862609       -3.6151855509       -0.7121935686
 C         -6.0105389844       -2.4255650569       -0.7443094024
 C         -4.6365421811       -2.4143305728       -0.5023183024
 C         -3.8982432830       -1.1578417539       -0.5272847424
 N         -4.5861261432       -0.0196719803       -0.7420523374
 C         -3.8785182200        1.1282695704       -0.7428656350
 C         -4.5930389382        2.3762289182       -0.9753407719
 C         -5.9787465307        2.3704658295       -1.1398809939
 C         -6.6558488411        3.5535167358       -1.3575542724
 C         -5.9627124796        4.7529908772       -1.4152185231
 C         -4.5846738632        4.7649924738       -1.2541814530
 C         -3.9008443165        3.5868793355       -1.0352211328
 N         -2.5876156440        1.1621827903       -0.5427382144
 C         -1.9278875582       -0.0033189373       -0.3356578555
 C         -0.5274823131        0.0034987247       -0.1103761189
 C          0.1849495073        1.2168529518       -0.0259904447
 C          1.5476235033        1.2126810091        0.1973095943
 N          2.2396480738        2.4317594819        0.2788142421
 C          2.1470735775        3.4647792198       -0.6291825104
 C          1.4272400052        3.5379451962       -1.8147880177
 C          1.5312896533        4.6967599885       -2.5607406338
 C          2.3377469043        5.7558594609       -2.1508520358
 C          3.0753579178        5.6794189997       -0.9835149909
 C          2.9847501833        4.5279163265       -0.2160497744
 C          3.6019888443        4.1049337112        1.0119536289
 C          4.4920428782        4.7055119528        1.8892978588
 C          4.8744964930        4.0111064184        3.0224783928
 C          4.3674322910        2.7421430252        3.2910329042
 C          3.4791831849        2.1231923709        2.4319317587
 C          3.1111293993        2.8043101807        1.2788759187
 C          2.2455196328        0.0124713861        0.3589646441
 C          1.5422166369       -1.1927648249        0.2789388410
 N          2.2289352184       -2.4079944406        0.4296508930
 C          3.3876518890       -2.7716246664       -0.2215494604
 C          4.1221380753       -2.0798508460       -1.1759753975
 C          5.2496241443       -2.6914509027       -1.6906279497
 C          5.6388389392       -3.9637053356       -1.2792532697
 C          4.8973705235       -4.6688332644       -0.3489384023
 C          3.7622044431       -4.0756440926        0.1821782547
 C          2.7671391452       -4.5107806948        1.1246611861
 C          2.5945466026       -5.6716594349        1.8633437133
 C          1.5054343427       -5.7603850165        2.7109568466
 C          0.6067228977       -4.7038220192        2.8372023673
 C          0.7596539324       -3.5357617504        2.1145072684
 C          1.8372471425       -3.4506150585        1.2422025211
 C          0.1823522714       -1.2050448913        0.0396980130
 N         -2.6059615905       -1.1782327062       -0.3347465241
 C         -3.9788479244       -3.6143928112       -0.2287224703
 C         -4.6851606557       -4.7992596022       -0.1978174231
 H         -6.6016219428       -5.7332207194       -0.4123105253
 H         -7.7741092077       -3.6195084816       -0.8996726487
 H         -6.5079256143       -1.4917736198       -0.9558096419
 H         -6.5031289440        1.4288472359       -1.0902380762
 H         -7.7289401771        3.5446901324       -1.4825743433
 H         -6.4949286400        5.6773443041       -1.5856877173
 H         -4.0451453044        5.6998964458       -1.3003228091
 H         -2.8289893010        3.5810194961       -0.9091930758
 H         -0.3575003039        2.1446643856       -0.1077654095
 H          0.8124926076        2.7158017744       -2.1472838756
 H          0.9776983856        4.7809893711       -3.4839843205
 H          2.3920681094        6.6449886040       -2.7610191989
 H          3.7116416826        6.4950171499       -0.6749915197
 H          4.8720595225        5.6963168747        1.6915695444
 H          5.5678131512        4.4605941028        3.7174602549
 H          4.6712378136        2.2320260825        4.1929720053
 H          3.0751588951        1.1487036408        2.6591744914
 H          3.3075486217        0.0166927491        0.5422238878
 H          3.8167478359       -1.1028686177       -1.5174825302
 H          5.8391525678       -2.1726447589       -2.4317858806
 H          6.5272403559       -4.4070426646       -1.7034027956
 H          5.1901289890       -5.6620860216       -0.0442037140
 H          3.2988860704       -6.4851831368        1.7781134254
 H          1.3507516946       -6.6573421269        3.2917091091
 H         -0.2267893408       -4.7976397226        3.5172056609
 H          0.0677493295       -2.7159458010        2.2306277385
 H         -0.3508763549       -2.1360124394       -0.0634075846
 H         -2.9161254101       -3.5953037889       -0.0418357901
 H         -4.1724948149       -5.7259377496        0.0155793846
