54
 energy: -85.176475486448 gnorm: 0.000056790082 xtb: 6.7.1 (edcfbbe)
C           -2.47336913985134        2.72844329949806       -1.35268006270158
C            0.42259202879385        0.34474513176973       -0.05179626148017
C           -0.63355834764870        2.85904136217774        0.64855330783794
C            1.67074898306544       -0.10324174562651       -0.71000127649528
C            2.60085953273793        1.61858740099308        0.16366604447774
N            4.04232865915986        1.29473429910140        0.22864838496051
C            4.34250456339855       -0.71102429581044       -0.59186587480858
C            3.34239920191348       -1.80658445833660       -0.78714540593102
C            2.03486421366077       -1.51109056593069       -0.81740561849203
N            0.98102294272699       -2.39636952951858       -0.79803776406138
C           -0.32649405876608       -2.06170370626295       -0.48321264976814
C           -1.31020650547143       -2.94230033976327       -0.71036983256804
C           -3.14179689129819       -2.24840573257314        0.90983312193630
N           -3.39363212136992       -0.92573355834348        1.46527184361741
C           -2.41841079931263        0.11781422347161        1.03828414808276
C           -0.61714019571906       -0.72714189901329        0.13954088306779
O           -1.72924769722783        3.06595908354596        1.44041398661543
S           -0.87910122419894        1.65899651104036       -0.79799169613935
O           -3.61029884162126        2.75495209907124       -0.52062116122579
C            1.69425999975989        0.50522093761983        0.72509439265881
C            2.19154339354772       -0.24683484750219        1.87562940282420
C            3.49572702069206       -0.51490553671597        1.90588771584626
C            4.39433642146459       -0.02561983791433        0.82633400493118
C            3.99630707869533        0.69228323357809       -1.12936024533509
C            2.51169468756480        1.02569226908912       -1.25690181105127
C           -1.85138139944820        0.09650738434021       -0.39097185740555
C           -1.23629278707721       -0.69495820974686        1.55784797520537
C           -2.25650781429558       -1.75003929426783        1.97372589675441
C           -2.77328847111511       -2.64758083454897       -0.51106400428785
C           -3.17162132396133       -1.61413228787392       -1.53277049067513
C           -2.72624772017624       -0.36703290342234       -1.48406631047230
H           -2.71510845152609        2.39211070520065       -2.36318907827756
H           -4.03804075313775        1.89096671767124       -0.54176935325902
H           -2.10550206918067        3.75265472662577       -1.42222236312130
H           -2.48166612791713        3.37102834435320        0.90070821424941
H            0.15461730456852        2.43523638196982        1.26714856249587
H           -0.28620274658903        3.76940325695375        0.14701912815505
H            2.40026867431808        2.65384141625234        0.43714006571516
H            5.33362147155901       -1.04621352006689       -0.90160260605470
H            3.70373164346138       -2.82204666407469       -0.84003500957909
H            1.16709376595886       -3.36735864409936       -0.99965545208220
H           -1.06837346276059       -3.89945003877480       -1.14983278592518
H           -3.91222697744016       -2.89999852925655        1.31974516605767
H           -2.71432220512331        1.06905806017106        1.46783789260306
H            1.52473945896278       -0.57134420774372        2.66050231888215
H            3.95037037686604       -1.04301170596835        2.73090531037925
H            5.42325914502159        0.03472689463504        1.19492874648353
H            4.66707894359635        1.11675110689667       -1.87504087025021
H            2.16031826253981        1.55067088642366       -2.13996028549285
H           -0.60517595300439       -0.33528972923524        2.36259872178542
H           -2.26556289758519       -2.17798120566203        2.96618504460410
H           -3.32744845081023       -3.56624286233550       -0.71876545787568
H           -3.79693627697898       -1.93901221425143       -2.35052663016548
H           -2.97561039826256        0.33384530752130       -2.26440449424472
