54
 energy: -85.158264084813 gnorm: 0.000093570165 xtb: 6.7.1 (edcfbbe)
C            1.00670238841962        3.33309090651952        0.36375800191426
C            0.24130333254727        0.41655217281068        0.24781601519221
C           -0.45706091315451        2.48096186419809       -1.82102592937431
C            1.40494056125069       -0.20083102928047       -0.44483724874922
C            2.69041838228351        0.88129116932648        0.89915609368611
N            3.94438650981201        0.10602406334039        0.95850643603211
C            3.77191873068984       -1.64306076177048       -0.33340037186553
C            2.53124848062066       -2.28292314215814       -0.85528371043252
C            1.37692491092160       -1.60007763072476       -0.88033236536729
N            0.14075601065082       -2.13298428889613       -1.14553656261683
C           -1.05660534611490       -1.60946694266812       -0.67676843305937
C           -2.20492191294900       -2.19284657805753       -1.04237692632915
C           -3.89608685941894       -1.40062551237003        0.68682608074042
N           -3.87515473550118       -0.16963628132905        1.46223223350212
C           -2.68026092315834        0.69014190558204        1.17925604225834
C           -1.05778491555564       -0.38373415572119        0.18132006230092
O           -1.27351285535057        3.51921594747817       -2.18674283261005
S           -0.52328687179882        2.11980762064530        0.02285055568227
O            0.53092286711537        4.59366048716122       -0.01516323796840
C            1.42107673395840        0.03180847627286        1.09729558934159
C            1.51887263359813       -1.08528086430401        2.04013033240450
C            2.66665917320064       -1.76056288667864        2.06585504220862
C            3.81681136920088       -1.35500691139566        1.21535016968208
C            3.90994167280444       -0.12122525764765       -0.50727276164685
C            2.61653043536945        0.68539538658766       -0.63127668700155
C           -2.04001133690321        0.75995505437937       -0.20731227485032
C           -1.72301660748759       -0.42890219828471        1.58031543697931
C           -2.95705984787353       -1.28980256153753        1.81546498236132
C           -3.57324614701001       -1.62523270119302       -0.78338313401676
C           -3.70982134391577       -0.36564155394365       -1.60218397187570
C           -2.97186096366834        0.70541471548382       -1.34896768184411
H            1.92998904186965        3.17681323747120       -0.18195855931713
H           -0.35204555924336        4.71641650852097        0.35808218307091
H            1.17621282293432        3.28363810039025        1.44565725047928
H           -2.20228530579531        3.28656890703005       -2.04473566547784
H            0.56408904903456        2.77843277542937       -2.04636848522155
H           -0.70955001509394        1.52841926287577       -2.29702198332661
H            2.78215254723741        1.81789247260274        1.44078937153623
H            4.65597677187608       -2.18999788427275       -0.66188956030063
H            2.57192313117772       -3.32446336197386       -1.13236930330953
H            0.10645044754122       -3.07241518317084       -1.51363260538745
H           -2.16391688355746       -3.07535484725572       -1.66536633795339
H           -4.79724068510947       -1.93699490633547        0.98198655078869
H           -2.77630336408230        1.62390783557700        1.73270162655277
H            0.69152618096102       -1.35510279216056        2.67604611328303
H            2.81847656868019       -2.58574934350901        2.74468100910924
H            4.75327940463893       -1.70710633102290        1.65779190140859
H            4.76323984255146        0.24079753880592       -1.07846231956692
H            2.57914748120737        1.46394802102125       -1.38609268472274
H           -1.07478771405410       -0.33273514446116        2.44417136769801
H           -3.08708964040584       -1.87207190097260        2.71757769731684
H           -4.30680613829904       -2.35111392684338       -1.14457072080178
H           -4.40601693030169       -0.38385750996981       -2.42835687284005
H           -3.10614166634241        1.59464796032489       -1.95293091778415
