67
 energy: -109.439438598832 gnorm: 0.000120070795 xtb: 6.7.1 (edcfbbe)
C           -3.94917928692451       -4.12973222362519       -0.50960894825709
C           -5.03205820736051       -3.27354418358582       -0.37156656185533
C           -4.82575593639123       -1.91846930132034       -0.19846118395112
C           -3.53753793669528       -1.39219560252360       -0.14722211119674
N           -3.36814806344371       -0.01511079592380       -0.01268126770562
C           -2.67168986541303        0.80758065321741       -0.87644124211639
C           -2.06508298168354        0.50211631439011       -2.08439432720731
C           -1.48263132441958        1.53514441925791       -2.79221613749588
C           -1.49809137927102        2.84197100102134       -2.31296295888276
C           -2.11985381480698        3.15476470120065       -1.12111693665353
C           -2.72309065317337        2.13471158349777       -0.39855306508445
C           -3.48450353933317        2.10221307066021        0.81991256420984
C           -3.86431124751657        3.07121477432657        1.73814716913378
C           -4.61610023650202        2.68917418815554        2.83232027441278
C           -4.97911422856776        1.35866038374413        3.02351869251140
C           -4.61041496999685        0.37510155909465        2.12437937651670
C           -3.87125861619108        0.75756433184486        1.01591159352309
C           -2.43973288177414       -2.26552198383313       -0.24123372714494
C           -1.08657889172519       -1.79803672728626       -0.05373789834521
N           -0.68406630167327       -0.61713533155796        0.31733677393533
N            0.64477938023002       -0.66096079604112        0.42665802704250
C            1.02162394289814       -1.86911515356661        0.12390799218770
C            2.35647535824362       -2.41991031000333        0.18438720204213
C            2.52432206962909       -3.80139125518055        0.27492185337668
C            3.77893447488028       -4.34654945265911        0.45932295972528
C            4.88439558771685       -3.51510675442939        0.56209634679958
C            4.73759390796364       -2.14589897546013        0.44306912968646
C            3.48235476946714       -1.58093753790055        0.23758623592502
N            3.36399589948920       -0.20439589701565        0.05240970327468
C            3.80408094904752        0.77397127273442        0.92166913734341
C            4.42057654748242        0.64270402179927        2.15618531943378
C            4.75061102250245        1.79963509790359        2.83720795955698
C            4.46891160780632        3.05743810871659        2.31030476874397
C            3.83887136936106        3.19200687063057        1.08851325403016
C            3.49996334995806        2.04481137231168        0.38446365023729
C            2.85768185756020        1.81161891047863       -0.87977376657186
C            2.38423881729730        2.64872835737745       -1.88066635352699
C            1.86798903767890        2.08180919784460       -3.02821871056198
C            1.82137594785537        0.69933589886023       -3.18642774875641
C            2.27700480813375       -0.15337306980261       -2.19995375272446
C            2.78609055047892        0.41100737474920       -1.04089922669992
O           -0.03920849573488       -2.65018819014926       -0.19038657292064
C           -2.66577859496501       -3.62862077705537       -0.44111371457733
H           -4.10794833699433       -5.18633718753014       -0.66136538832199
H           -6.03826378816750       -3.66233918297264       -0.41404924281034
H           -5.66428289463051       -1.24280059476300       -0.11870800312037
H           -2.05382089902040       -0.50905733135195       -2.46554058383410
H           -1.00876175520429        1.32512327153394       -3.73886038971639
H           -1.02389803102537        3.62091629991472       -2.89093740455306
H           -2.14608788406538        4.17134490651126       -0.75863854987186
H           -3.57262865175739        4.10111157359319        1.59844042455962
H           -4.92361605130363        3.42857188916777        3.55695623859993
H           -5.55843067269305        1.08828419970512        3.89426345723247
H           -4.88388664922500       -0.65719120725600        2.28675769735134
H            1.65447093467708       -4.43879138271969        0.21993552792713
H            3.89573930812737       -5.41682610890357        0.53313095930342
H            5.86552899101669       -3.93743419341970        0.71849192966613
H            5.59901084141084       -1.49645748106522        0.48804002714099
H            4.62842560597261       -0.32955316421026        2.57801344396722
H            5.23430730573174        1.72614918090666        3.80028477242386
H            4.74298462637200        3.93773200092005        2.87274188719699
H            3.60952253051569        4.16762299330341        0.68739039779209
H            2.43070005628017        3.72086715287725       -1.76431688199533
H            1.50357488624644        2.71547099604508       -3.82299693678624
H            1.42840237333022        0.28270394204994       -4.10264679383549
H            2.24859727148204       -1.22530851572850       -2.33679531859139
H           -1.81732191915255       -4.29088620149943       -0.52618704117235
