67
 energy: -109.359816630468 gnorm: 0.000159333533 xtb: 6.7.1 (edcfbbe)
C           -0.41487609799682        3.78431715632674       -0.37565053001209
C           -1.78395618611964        4.07699023319119       -0.32562009083695
C           -2.70501154816766        3.04524267377779       -0.25337532598443
C           -2.29254561213920        1.72323811126194       -0.24455721387393
N           -3.22485393234728        0.70274312275809       -0.06270668455813
C           -3.17587833108838       -0.25829743588186        0.92819636791362
C           -2.26546709661641       -0.40743773871224        1.96482076719955
C           -2.46829697742625       -1.44768258395286        2.85197779770490
C           -3.55511291838314       -2.30857814308073        2.72656655870307
C           -4.48394011338981       -2.14199903599825        1.71448980074351
C           -4.29913432123197       -1.10754985577132        0.81122920766321
C           -5.05737503417829       -0.62687814734248       -0.31460169372257
C           -6.22832597056590       -1.04075259195304       -0.92742904070023
C           -6.68507543396140       -0.33554236881144       -2.02841060511132
C           -5.98068906627471        0.75849931859806       -2.52515208107421
C           -4.80860486078983        1.18885535713966       -1.93214377428280
C           -4.35702027826197        0.49764640127977       -0.81504970508807
C           -0.90348517083165        1.41197812942381       -0.38682216403238
C           -0.45726374876510        0.10210347336287       -0.60319873821594
N           -1.17469870722341       -1.01091669659569       -0.79868381114405
N           -0.36454191793422       -2.01200509711161       -0.91363255738518
C            0.89002229584991       -1.56334472077102       -0.78171459456210
C            2.05566388282236       -2.34477003847968       -0.75877928031451
C            1.98782920806158       -3.70308794076432       -1.15536168246260
C            3.12494600626404       -4.44891680596428       -1.29657808926497
C            4.38301195082409       -3.88743767185317       -1.03984508571096
C            4.47508993844358       -2.57878035079791       -0.59947654596714
C            3.33770253835914       -1.80811341756141       -0.42251926154672
N            3.44497511363731       -0.51724470385407        0.10360645983753
C            2.75223037062797       -0.03860934748081        1.19584379621662
C            1.91131408279513       -0.71467504744734        2.07081896917456
C            1.32689458808600        0.01234318449534        3.08983363720387
C            1.57840535255477        1.37349485254610        3.24930966464383
C            2.44427703675239        2.04272545293091        2.40338409307162
C            3.04368185878903        1.33442233499527        1.37335038461494
C            3.97103916339442        1.68917702102186        0.33164946221366
C            4.59856077001943        2.87159543391250       -0.02836049012265
C            5.43370428267323        2.86836139643766       -1.13166119521184
C            5.63252753553635        1.71036575888613       -1.87930868695357
C            5.01485635395566        0.52010613745090       -1.54228136847212
C            4.19287437765020        0.51283289552078       -0.42412471005930
O            0.88992750940669       -0.19540677215494       -0.61973337718281
C            0.01944718839930        2.48826989904420       -0.40003609923732
H            0.30113611619676        4.59221822008214       -0.39881758165094
H           -2.11895408439421        5.10194036584069       -0.30544292062823
H           -3.75860070480722        3.26333924941368       -0.15241006896439
H           -1.42264105071459        0.25961113648208        2.07037815897009
H           -1.77019310058822       -1.59644182848667        3.66242866059699
H           -3.67563124447747       -3.11328692454686        3.43646697358860
H           -5.33503451159610       -2.80047997433236        1.62992426019769
H           -6.76929348428786       -1.89811399172974       -0.55695294691952
H           -7.59750428793686       -0.64151458481689       -2.51804953820777
H           -6.35622194043713        1.27829553686329       -3.39390748733068
H           -4.25606184394114        2.02652354670156       -2.32950703068209
H            1.01098606432498       -4.11018859245277       -1.36179584143390
H            3.05900606047380       -5.47919004406392       -1.61235095011692
H            5.27559295803101       -4.48233445378219       -1.15267178951794
H            5.43649796155292       -2.15529525768835       -0.34575380763415
H            1.70888466419583       -1.76863777409385        1.94991419368989
H            0.66155871060495       -0.48609671428776        3.77900727490452
H            1.09322170318687        1.90919027206760        4.05167899310460
H            2.64836286801632        3.09411964959286        2.53839166968795
H            4.43332809692657        3.77489973370916        0.53932678923706
H            5.93418955257372        3.77874693921177       -1.42593690360672
H            6.27936243435368        1.74377287069232       -2.74323441961090
H            5.15838520832020       -0.37079395343803       -2.13451365421025
H            1.07178470197331        2.25550969919874       -0.45409647030614
