  71
       -110.30516178
 C         -0.3627811819        4.2347257813       -0.2441435978
 C          0.8296072892        4.0823116117       -0.9519805278
 N          1.2083272104        2.9142339500       -1.4478275341
 C          0.4754858427        1.8529007301       -1.2181396424
 C         -0.7039774669        1.8534923368       -0.4281944269
 C         -1.4121579444        0.6397626595       -0.1318266725
 C         -2.8002101462        0.6452174289       -0.0431474953
 C         -3.5366174671       -0.5251891752       -0.0162025547
 N         -4.9254329452       -0.4876659848        0.0616792154
 C         -5.8067567278       -1.2103469448       -0.7187827904
 C         -5.5496179800       -2.0744402692       -1.7745890440
 C         -6.6300492843       -2.6537483048       -2.4132882312
 C         -7.9389898716       -2.3740593765       -2.0268178479
 C         -8.2029939671       -1.4879372963       -0.9996153592
 C         -7.1347638186       -0.8950114767       -0.3424661158
 C         -7.0398917395        0.0700339488        0.7176389363
 C         -7.9807809741        0.7354281801        1.4903610763
 C         -7.5381285045        1.6019515577        2.4716198500
 C         -6.1766399978        1.7917498137        2.6996947979
 C         -5.2212637421        1.1416229101        1.9415646845
 C         -5.6590896876        0.2944485264        0.9329035423
 C         -2.8596650169       -1.7774200132       -0.0944589511
 C         -1.5010158479       -1.8143238249       -0.1288164039
 C         -0.7100877215       -0.6383021804       -0.0614585655
 C          0.6880668680       -0.7013661771        0.1426072860
 C          1.3968158588        0.3595076463        0.7940224823
 C          2.7594692095        0.3903113013        0.8373704738
 C          3.5178227071       -0.6370951500        0.2539513942
 N          4.9005277293       -0.5432221782        0.2019941476
 C          5.6024093367        0.5810359242       -0.1963788999
 C          5.1255545950        1.7968556004       -0.6682842595
 C          6.0557580060        2.7497511298       -1.0399166449
 C          7.4244901893        2.5030952776       -0.9581355480
 C          7.9032561513        1.2819597584       -0.5213696593
 C          6.9900316656        0.3088713156       -0.1428521215
 C          7.1233830587       -1.0478156921        0.3133746281
 C          8.2139130912       -1.8624376639        0.5785903422
 C          7.9858368469       -3.1430434519        1.0469336147
 C          6.6907505013       -3.6045634879        1.2708624107
 C          5.5882677506       -2.8109612939        1.0147267351
 C          5.8090995520       -1.5361849521        0.5113932994
 C          2.8420244219       -1.7526405751       -0.2855273290
 C          1.4793327128       -1.7899621076       -0.3244663269
 C         -1.1236258955        3.1204424836        0.0239743395
 H         -0.6585363350        5.2080075639        0.1171794303
 H          1.4934713737        4.9156291247       -1.1328637452
 H          0.7845664914        0.9525545027       -1.7328465826
 H         -3.3312407461        1.5847008684       -0.0996055195
 H         -4.5408609954       -2.2766130253       -2.1002727206
 H         -6.4555610686       -3.3322989143       -3.2350248980
 H         -8.7564865864       -2.8477950951       -2.5495967699
 H         -9.2180118176       -1.2542167895       -0.7159085925
 H         -9.0356991197        0.5729554769        1.3284910953
 H         -8.2542324994        2.1327954606        3.0809857350
 H         -5.8610870694        2.4581471814        3.4887630362
 H         -4.1689942732        1.2769844857        2.1403611619
 H         -3.4382876879       -2.6873838394       -0.0580513372
 H         -1.0055864094       -2.7732638339       -0.1171277128
 H          0.8332445129        1.1066258467        1.3307851933
 H          3.2706380613        1.1899281864        1.3530701502
 H          4.0682261881        1.9916580877       -0.7638443584
 H          5.7110717581        3.7038598595       -1.4089337950
 H          8.1190111807        3.2746756309       -1.2551662343
 H          8.9635275237        1.0830612619       -0.4816658991
 H          9.2188111567       -1.4986338063        0.4263893150
 H          8.8215486920       -3.7939828792        1.2559651155
 H          6.5448191455       -4.6015273636        1.6591428217
 H          4.5904948300       -3.1684476677        1.2172939755
 H          3.4204431082       -2.5488643997       -0.7301778655
 H          0.9934553384       -2.6243304842       -0.8061601095
 H         -2.0176582323        3.2075581930        0.6254294169
