71
 energy: -110.307029195446 gnorm: 0.000060284951 xtb: 6.7.1 (edcfbbe)
C           -0.35180264766209        4.04471706336839        1.42263812826694
C            0.83360635755754        4.18601874024475        0.70122671651182
N            1.20904217635091        3.30155707256481       -0.20979732854938
C            0.48219195332541        2.23018243160468       -0.40533996249764
C           -0.69313959016986        1.92036434007659        0.32864110489269
C           -1.40638147099670        0.69348319206786        0.11288799390532
C           -2.79589303642710        0.66338265993941        0.20695225211667
C           -3.53227252422117       -0.43234787287890       -0.19862030009694
N           -4.92449522527729       -0.43394175507300       -0.12849370782401
C           -5.76674766982187        0.58155051879277       -0.53926518160707
C           -5.46525841944391        1.78897659551529       -1.15503493116448
C           -6.51509940853477        2.62043452089134       -1.49648431287792
C           -7.83787063676787        2.26369078309727       -1.24475201677286
C           -8.14704380537783        1.04955048208819       -0.66185047331776
C           -7.10986291147020        0.19772803254999       -0.31098792202000
C           -7.06609576140741       -1.11642125562623        0.26871978390329
C           -8.04126188513866       -1.99358614842455        0.72035612941405
C           -7.64474311886588       -3.20088055666064        1.26364300623079
C           -6.29516722452911       -3.52737619701355        1.37634659338387
C           -5.30580389469267       -2.66888684336499        0.93584143162205
C           -5.69872432038564       -1.46811490774393        0.36012475166864
C           -2.86008323520198       -1.55587007493579       -0.76749775047830
C           -1.50409578431280       -1.56840301946640       -0.84493861467152
C           -0.70791957126119       -0.51501265620305       -0.32258961458879
C            0.68907843401039       -0.66199985378405       -0.15778624202177
C            1.40354320301912        0.05441635881212        0.85647807478145
C            2.76581782267153        0.04354286944119        0.91791013195588
C            3.51943235222999       -0.68929871399015       -0.01268768786062
N            4.90470915021380       -0.60645723681439       -0.01178568381618
C            5.62563304712028        0.57188283933096        0.06829209540579
C            5.17060605212006        1.88349494367663        0.09840528711003
C            6.11739055973628        2.88984590666663        0.14341660217618
C            7.48162179896940        2.60756577729646        0.14685064359319
C            7.93930199273422        1.30476426801144        0.08178451369044
C            7.00889821304654        0.27692042488383        0.03533229989872
C            7.11944954197662       -1.15277781510156       -0.06862271230220
C            8.19666682138655       -2.02443267913944       -0.12276173151753
C            7.94693431698097       -3.38236966303350       -0.19282322411425
C            6.64314534412012       -3.87251162673068       -0.18792729998207
C            5.55361355926922       -3.02347884936912       -0.13351560216860
C            5.79689357920669       -1.65721862972350       -0.09706057130631
C            2.83699935404188       -1.49486605908179       -0.94897882628162
C            1.47452966904244       -1.49452477005413       -1.00684994068683
C           -1.10773331796334        2.90926007053964        1.24314704337473
H           -0.64502679485353        4.79855407563163        2.13747930806354
H            1.49499615316716        5.02727948329282        0.85189804296672
H            0.79137106479411        1.59964194744590       -1.22835201917707
H           -3.31933870034973        1.53266329201060        0.57680937411853
H           -4.44659777835424        2.06671842381660       -1.37817290133488
H           -6.30444987343144        3.56598812883615       -1.97369832802883
H           -8.63008296538909        2.94274687351525       -1.52251767697650
H           -9.17304422634637        0.76275820707339       -0.48733728780014
H           -9.08648299655616       -1.73235621264034        0.65210808281492
H           -8.38811646230531       -3.89910637413832        1.61831856226437
H           -6.01532829811233       -4.46954913494097        1.82380028469403
H           -4.26240555566653       -2.92060199802779        1.04873678294963
H           -3.44818812039705       -2.37096926182827       -1.16031151219071
H           -1.01332801291562       -2.43846361688231       -1.25437216029255
H            0.84309320603484        0.54258626189295        1.63840779534796
H            3.27985767036972        0.57185978942507        1.70740463442819
H            4.11732446479656        2.11753313514436        0.06884538986565
H            5.78973257647879        3.91811725648557        0.16949413547286
H            8.18955876715461        3.42199981496811        0.18648178155324
H            8.99662194922864        1.08797080349986        0.05977462166790
H            9.20779778429846       -1.64685693800886       -0.10442750199928
H            8.77198093709463       -4.07736434937917       -0.23893394918936
H            6.47969792785656       -4.93942839249215       -0.22096256983012
H            4.54845868319316       -3.41490981336921       -0.10345041756351
H            3.41110215776940       -2.06367860972382       -1.66534791037301
H            0.98562803444647       -2.06854491695947       -1.77863897617349
H           -1.99350696560836        2.74968806868139        1.84150294811398
