128
 energy: -201.604059581900 gnorm: 0.000068248937 xtb: 6.7.1 (edcfbbe)
O            8.41555084437087       -1.26038263075176        3.42277445800661
P            7.57436787855768       -0.73806293645607        2.32602171012739
C            7.40055524288103       -1.98081500440892        1.00616868157595
C            6.32654365677600       -2.85655590982640        0.97241680815124
C            6.29983522470315       -3.87293308285771        0.03334565279294
C            7.34599663760938       -4.01749490852577       -0.86314180676053
C            8.43076414347447       -3.15624603855856       -0.81496329208947
C            8.46073316034839       -2.14138907252002        0.12478037840899
C            8.27776570852474        0.76369881172916        1.57767190505887
C            9.55722889540040        1.13803159671560        1.96909503779519
C           10.12791124993972        2.29141343023075        1.46137692888621
C            9.41416922399848        3.07940667162897        0.57216347072888
C            8.13289298536351        2.71221532404454        0.18914267628035
C            7.56327609247901        1.55522250295802        0.68714692087808
C            5.91629346765691       -0.27081672283503        2.89031228381615
C            5.77750009756893       -0.05340931512653        4.26588841591353
C            4.58199139854933        0.37236782977964        4.82660637924980
C            3.47188338660069        0.60503004284471        4.03869126578667
C            3.58156863664383        0.39081524875102        2.66239886899336
C            4.79958214883500       -0.04234365673768        2.10099556740187
O            4.69208578133640       -0.20075320844011        0.74605231734846
C            3.40868855671725        0.13041737104052        0.42188661256892
C            2.82046831801250        0.11975063037348       -0.83414696750628
P            3.56403538611265       -0.43087144088434       -2.39534247584675
O            2.69376459269659       -0.10102930314692       -3.54404220070728
C            3.78551317055097       -2.23744087120955       -2.26459432618259
C            4.63781130206023       -2.86658614523802       -3.16167584217944
C            4.69459733969242       -4.24764804125137       -3.20792394856346
C            3.89300939434199       -5.00171207688386       -2.36515987354073
C            3.03617349416936       -4.37438453290973       -1.47527259603143
C            2.97849194447096       -2.99189131963465       -1.42647518072746
C            5.21874650686088        0.29811027035051       -2.57328423559676
C            5.32044408097272        1.43604440287379       -3.36428853672340
C            6.55604847487773        2.01410368238694       -3.59088636304649
C            7.69203126911394        1.44897161187443       -3.03215181073403
C            7.58947801728690        0.31523459472764       -2.24184560287315
C            6.35454551833326       -0.26122137218649       -2.00454114493155
C            1.48666993260237        0.52771874607691       -0.91592519965859
C            0.74150667733122        0.90670971107215        0.20229301398035
C           -0.66935887125885        1.28912184760468        0.04698771875956
C           -1.62876728148904        0.84328525941180        0.95503946147797
C           -2.95845608059014        1.17538215648331        0.79689887726040
C           -3.37099873733964        1.96829753724897       -0.26993389485604
C           -4.82462216394804        2.37183970177364       -0.39976572007003
C           -5.78350322842125        1.25105522070523       -0.06308133428954
C           -5.49989691923139       -0.05866615647301       -0.44696100631222
C           -6.39960728300613       -1.07571856724842       -0.21011085226654
C           -7.61508458108931       -0.80230674291774        0.41907911081234
N           -8.52517067656333       -1.83378367018635        0.67008205840397
C           -9.13404005626654       -2.09496294030207        1.88097350491118
C           -8.97473408312759       -1.45844742475382        3.10545109848571
C           -9.68912852382942       -1.94796638304340        4.18420823120299
C          -10.53306375237156       -3.04816527397932        4.05660009086808
C          -10.67562543587804       -3.70280291578602        2.84406116396981
C           -9.97083662726520       -3.22903107483344        1.74877819540864
C           -9.85805593825815       -3.66107723920174        0.37905618206103
C          -10.43898422848970       -4.68724877091538       -0.34907118077579
C          -10.11860837689647       -4.80973115059550       -1.69128719847517
C           -9.24665478322690       -3.91523343322764       -2.30664253059435
C           -8.65617089541207       -2.88262905596532       -1.60048774394128
C           -8.95201313441620       -2.77212566726720       -0.24754021313922
C           -7.91168142688023        0.50777545312608        0.79330738036203
C           -7.00676057230714        1.51932358149096        0.54579926538983
C           -5.04080342783254        3.62326140154484        0.42941830140808
C           -4.81858416099595        3.82454064904439        1.76272545095534
C           -5.08590341341510        5.08307522596636        2.31514163523394
C           -5.56463305717153        6.13260351829582        1.51062021010718
C           -5.78363376767229        5.95930155892307        0.17109472461851
C           -5.52400436767839        4.69075188337562       -0.40711973404651
C           -5.64939494400533        4.22547880562565       -1.72264738401535
C           -6.08971543403403        4.86480118765302       -2.90925880155604
C           -6.08834670700298        4.15864612366880       -4.08065061953630
C           -5.66414447659740        2.81743318257931       -4.12604333088972
C           -5.23860530958425        2.16397948942318       -2.96448351811648
C           -5.22008368748730        2.85215661253077       -1.78327317667264
C           -2.41290499935296        2.43894799535197       -1.15975169760662
C           -1.08321857506398        2.09470348854271       -1.01142965953737
C            1.33648277608543        0.89163190268734        1.45801720780252
C            2.67368682450496        0.51092587386745        1.56392572581482
H            5.51942478192619       -2.74127290470994        1.68347922292820
H            5.46208011725658       -4.55291635610834        0.00089230586558
H            7.31818518685970       -4.81039077231894       -1.59498884383069
H            9.25164949015542       -3.27827866171947       -1.50642268677462
H            9.30425938587662       -1.46587793181166        0.19301149059378
H           10.08620743248270        0.51137309060490        2.67422257223163
H           11.12520995303491        2.57755054880743        1.76233111092340
H            9.85497488616455        3.98359323780206        0.17890295584452
H            7.57520951465182        3.32700456666051       -0.50193761046468
H            6.57149527635626        1.25925642716095        0.38267475006926
H            6.64132779563853       -0.24115874950164        4.88702265934965
H            4.52521555341447        0.52471028642501        5.89427383840719
H            2.53952246900863        0.93974838829213        4.46473999408657
H            5.24584019240604       -2.26338450987542       -3.82352651578084
H            5.35647870583922       -4.73610662760746       -3.90795015565554
H            3.93272463750957       -6.08049724796503       -2.40518526236133
H            2.40647835862525       -4.96156702148397       -0.82219109360105
H            2.30528614075198       -2.49206902263693       -0.74237973460159
H            4.42069517536881        1.84158015591192       -3.80698793042457
H            6.63435830210233        2.89763244166117       -4.20769345548373
H            8.66056618038859        1.89094867173221       -3.21381741567832
H            8.47486036264831       -0.12376131663649       -1.80812392823240
H            6.26631863434053       -1.14281747246874       -1.38705070916280
H            1.02666517468234        0.51120574376428       -1.89328911977218
H           -1.32932101019678        0.20748906718274        1.77545042950008
H           -3.68853439104057        0.80110458859468        1.49998663735630
H           -4.55357250546920       -0.28392511663644       -0.91540977511354
H           -6.15509367730947       -2.09207859814995       -0.48010302341475
H           -8.30756143986933       -0.61801638598298        3.21764771250740
H           -9.58572412409837       -1.46940817313371        5.14657399110079
H          -11.07582602576606       -3.40074700750232        4.92081132803775
H          -11.31638711432610       -4.56649413632937        2.75376410093496
H          -11.12894101137407       -5.37196941535420        0.11967030910669
H          -10.55851316837943       -5.60454449656678       -2.27491682689475
H           -9.03008176879540       -4.02654403881195       -3.35854631446457
H           -7.99800303551832       -2.18142620883533       -2.08963947358801
H           -8.86400597972580        0.72996618172768        1.25055383523074
H           -7.25066207945493        2.53359546629994        0.82517850009302
H           -4.44619938737591        3.02986778819156        2.39211494539334
H           -4.92187131923573        5.25173920879585        3.36814510740719
H           -5.75606745868142        7.09266772782660        1.96869390718953
H           -6.14057871237174        6.76857295606326       -0.44748821880977
H           -6.42207254257845        5.89114181986448       -2.87419582290435
H           -6.41838531503872        4.62966234366576       -4.99571358527495
H           -5.66559929397857        2.29029349718846       -5.06743842028392
H           -4.91607317202032        1.13432207534336       -3.01484086046988
H           -2.71140925976777        3.07549553520372       -1.98036784997559
H           -0.35128085039301        2.46687468120112       -1.71339412436456
H            0.78837813010766        1.19108520684639        2.33696573550157
