128
 energy: -201.605034441217 gnorm: 0.000186136478 xtb: 6.7.1 (edcfbbe)
O            9.04459070464492        0.77255546846624       -2.55424030149407
P            7.97917101578893        0.57440982836353       -1.55051303020435
C            8.42731533860601        1.23701545137439        0.08113397794378
C            7.53590202088189        1.23246698004186        1.14775341332201
C            7.90719846323192        1.79862527886304        2.35255757065348
C            9.16303267751088        2.36956534916181        2.49700548463414
C           10.05040744589519        2.38057494343199        1.43178673454232
C            9.68085410636045        1.81941626410380        0.22288981928454
C            7.60786477171391       -1.19561668124038       -1.33791804224137
C            8.46303250503798       -1.94760507184000       -0.54455505890803
C            8.29772774048664       -3.31845153778134       -0.45749533446555
C            7.28400922700090       -3.93633408872446       -1.17281186571216
C            6.44545757148852       -3.18830232328636       -1.98312647780541
C            6.60807369634880       -1.81654983786532       -2.07039973144113
C            6.44582746433571        1.43024933125851       -1.99571654179566
C            6.57665845610911        2.47632046134838       -2.91286574200675
C            5.51255389973921        3.28255308071477       -3.27326528140155
C            4.25344190116675        3.08267463942275       -2.71772935915885
C            4.09256763701656        2.04925840230023       -1.80928261671853
C            5.17992247245398        1.22625385282179       -1.44896404691767
O            4.80492762656422        0.26188611309198       -0.56293193327730
C            3.47665746259936        0.44185155069032       -0.32931978967577
C            2.61417307088141       -0.30933326767798        0.49588935818780
P            3.01938348207037       -1.81251216977827        1.42851661245722
O            1.90320865377367       -2.21314862939669        2.31103075829591
C            4.55548343126088       -1.54530053714330        2.36170895279947
C            5.81562008799723       -1.75160042083197        1.81830009969242
C            6.93557749755792       -1.58577325707292        2.61393661808149
C            6.80143578992614       -1.20269582350855        3.93892369065838
C            5.54275559869845       -0.98276137976439        4.47731838332018
C            4.42010581416335       -1.15775551170444        3.68935528576243
C            3.35771360811276       -3.11804113586708        0.20004793551525
C            3.98772121202742       -4.27627531126970        0.63502612879739
C            4.09980074873140       -5.36213522255471       -0.21390409538631
C            3.57437150322936       -5.29530288887237       -1.49499898819058
C            2.93876865790598       -4.14243003418642       -1.92692166388230
C            2.82542661899912       -3.05374534007923       -1.07870179424855
C            1.30397818703842        0.08817150737154        0.57543742190864
C            0.74448591544061        1.19921552616198       -0.13515225432540
C           -0.62334918590672        1.53590025009066       -0.03493841613539
C           -1.57218024277145        0.71368862697115        0.66029845899012
C           -2.89776801317011        1.02440139622720        0.70716137984768
C           -3.41057990425909        2.17497414386562        0.07372583865308
C           -4.87104744424949        2.52375923112050        0.17719526051527
C           -5.77756472179328        1.31469621551461        0.12097481397656
C           -5.48717543528409        0.26519858808374       -0.74629109493275
C           -6.32962741556679       -0.82328495711832       -0.84770367679905
C           -7.49489436493808       -0.87674435198160       -0.08636289293313
N           -8.35120217925384       -1.98191404561618       -0.18359301671489
C           -8.84553899431870       -2.71383705410319        0.87651922400412
C           -8.59895359152214       -2.57669154962431        2.23670744978705
C           -9.20780611307767       -3.47299550213852        3.09582459919287
C          -10.03478106326174       -4.48767357859122        2.62019121114233
C          -10.26433533120456       -4.64446279064702        1.26411849046365
C           -9.66448787795837       -3.75736755907170        0.38326387700069
C           -9.65975771326268       -3.63514721044661       -1.05135050222897
C          -10.27620355484265       -4.34278028620701       -2.07213285101474
C          -10.06922725773618       -3.93521437301423       -3.37875119381444
C           -9.27444380364357       -2.82875580835027       -3.66823737051087
C           -8.65071284367354       -2.10699770499429       -2.66716073116629
C           -8.83297058546026       -2.52761649145782       -1.35578791948601
C           -7.80069297364217        0.17791140024503        0.77006920583957
C           -6.94846813064960        1.26059453617011        0.86823526157635
C           -5.01593962927721        3.35233058694196        1.44357577808138
C           -4.72836947627856        2.99622492805652        2.74550315482284
C           -4.91636829088508        3.93609470707126        3.74871636785384
C           -5.36980661060480        5.21478363820512        3.45131517210406
C           -5.65032982891600        5.58130817413949        2.14550633708697
C           -5.47098911699772        4.64595652846967        1.13828485554211
C           -5.68370618540374        4.73804570975937       -0.29522253892638
C           -6.14299561292963        5.78383196931526       -1.08132047171635
C           -6.24435430939657        5.59143826413247       -2.44964084869779
C           -5.89679484908517        4.37740798820014       -3.02413917986906
C           -5.43802814208935        3.32521182718826       -2.24161787674165
C           -5.33090177596957        3.51259264138165       -0.88052913042269
C           -2.49180145627460        3.03104810321289       -0.56092926846979
C           -1.16394407033534        2.72791909229867       -0.62488364625791
C            1.65221505847171        1.92926598108918       -0.98271747539109
C            2.96428749905055        1.54750571695487       -1.06229752075985
H            6.56365441132409        0.77882054320304        1.03064190173213
H            7.21459876614309        1.79195080024279        3.18127634098763
H            9.44897913557879        2.80964393356279        3.44096799387205
H           11.02763603477079        2.82746458637485        1.54299615608410
H           10.35049235298882        1.81820897335658       -0.62634852186928
H            9.25609256445707       -1.44328345157050       -0.00652222058975
H            8.95889071793991       -3.90531775742085        0.16339140725683
H            7.15185018669258       -5.00563589835220       -1.10719844500305
H            5.66423958346847       -3.67417132349711       -2.54777954742513
H            5.96618598491597       -1.22422303458030       -2.70894523839541
H            7.55484811150704        2.63098543846153       -3.34630454335723
H            5.66334386543794        4.07632405058779       -3.98896447500148
H            3.41919268269916        3.71044274983743       -2.98791505064929
H            5.91287565353572       -2.04548246343769        0.78336343405114
H            7.91584408819653       -1.75491024956880        2.19530627318457
H            7.68085274509182       -1.07665109763727        4.55308590063517
H            5.43681198234778       -0.68293255732716        5.50979836071358
H            3.42511585842303       -1.01636397029148        4.08930654046994
H            4.37891060572036       -4.31639558346970        1.64351955975347
H            4.58730401188982       -6.26392864692198        0.12634480663629
H            3.65586475001654       -6.14560717138293       -2.15631370152608
H            2.52403609753588       -4.09186446744182       -2.92352336354905
H            2.32015132868469       -2.15356959006635       -1.40306761619988
H            0.68011665140404       -0.49374849228623        1.23554568504000
H           -1.23918852513738       -0.18999481323340        1.14404880646821
H           -3.57746353790537        0.36546302165476        1.22852521680135
H           -4.58081014856152        0.29211390399167       -1.33267290141745
H           -6.07812317765930       -1.64597275704264       -1.49996280715639
H           -7.94490188919872       -1.80522104770165        2.61280740492052
H           -9.03464838812575       -3.38652428324554        4.15825847816140
H          -10.49417766173567       -5.16734927348078        3.32234983851071
H          -10.89193613256676       -5.44247292365657        0.89774798820792
H          -10.90628348506708       -5.19047671784523       -1.84998657204128
H          -10.53786786601773       -4.47539474804228       -4.18785055053704
H           -9.14548450479109       -2.52519980981887       -4.69658645153753
H           -8.05232305068225       -1.23955049636524       -2.89926350373298
H           -8.71676807632752        0.15478168302334        1.34075521703847
H           -7.19888200243514        2.07552019848978        1.53075042871382
H           -4.36858480490259        2.00670196208071        2.98443826941126
H           -4.70476739226338        3.67008751359448        4.77415578126696
H           -5.50224001628639        5.93124207028694        4.24907612633376
H           -5.99896047664937        6.57739893643130        1.91661941232894
H           -6.41491105732274        6.72973518118479       -0.63714836035891
H           -6.59888573584504        6.39591933552062       -3.07787706648436
H           -5.98329541191692        4.24818818171481       -4.09318819875366
H           -5.16705032873023        2.38368984645364       -2.69539084541016
H           -2.85126647125203        3.94444919749758       -1.01288524437785
H           -0.50299838125243        3.42370720027277       -1.11455770883698
H            1.30859442814516        2.75604967159025       -1.57879004367275
