  57
        -86.18848170
 C         -1.3422118999        3.6936271744       -2.0331977375
 C         -1.2205215327        2.5357546456       -2.7864928344
 C         -1.3629417751        1.2863638185       -2.1976813579
 C         -1.6298001983        1.2249389436       -0.8477189657
 C         -1.7528664826        2.3920687032       -0.0803815071
 C         -1.6092811274        3.6348253728       -0.6747583694
 C         -2.0268269225        2.0112233421        1.2964149801
 C         -2.2383715063        2.7759470056        2.4316415486
 C         -2.4855814979        2.1278933062        3.6312310740
 C         -2.5213045972        0.7432873039        3.6989784433
 C         -2.3091551716       -0.0300202588        2.5655052279
 C         -2.0632765206        0.6112720365        1.3716274407
 C         -1.8064911143       -0.0003021798        0.0163596438
 C         -2.9022969295       -0.9279131894       -0.4480225374
 C         -4.2414914264       -0.6525059710       -0.6139642367
 C         -5.0761291831       -1.6713649026       -1.0538045181
 C         -4.5737579241       -2.9363046479       -1.3195210146
 C         -3.2269438074       -3.2168381010       -1.1540056464
 C         -2.3879946664       -2.2054967981       -0.7157699015
 C         -0.9578668206       -2.1900907537       -0.4570028522
 C          0.0108188469       -3.1731324272       -0.5773452889
 C          1.3240281089       -2.8537650702       -0.2787952907
 C          1.6858947621       -1.5724542985        0.1348822324
 C          3.0937551342       -1.2648207678        0.4373580898
 C          3.7747749211       -2.0440485528        1.3428691506
 C          5.0998842161       -1.7599529578        1.6946829652
 C          5.7448254903       -0.6920737994        1.1376776955
 C          5.0957037549        0.1202213522        0.1849599344
 C          5.7541755764        1.2125140270       -0.4184416954
 C          5.1273918985        1.9764751978       -1.3614341339
 C          3.8168101261        1.6686137024       -1.7553081019
 C          3.1489289794        0.6205823240       -1.1858541399
 C          3.7549666034       -0.1699297338       -0.1853737764
 C          0.7039933171       -0.5896805176        0.2786755928
 C         -0.5994743726       -0.9058901915       -0.0218394223
 H         -1.2266324725        4.6546909955       -2.5131627513
 H         -1.0108144183        2.6062910473       -3.8437773493
 H         -1.2668331182        0.3833057259       -2.7833549528
 H         -1.7014066047        4.5397362148       -0.0925013442
 H         -2.2121371274        3.8545671351        2.3839986628
 H         -2.6543120918        2.7085007525        4.5266298331
 H         -2.7179875890        0.2603489879        4.6449841539
 H         -2.3382477158       -1.1088829047        2.6173020468
 H         -4.6320697565        0.3334137750       -0.4070524565
 H         -6.1295725128       -1.4760644941       -1.1908840822
 H         -5.2426430742       -3.7132730897       -1.6604758461
 H         -2.8403244005       -4.2035570995       -1.3622594467
 H         -0.2493672720       -4.1684901455       -0.9059369127
 H          2.0952702278       -3.6031005793       -0.3862117267
 H          3.2687694673       -2.8763097548        1.8113307224
 H          5.6010683114       -2.3870695725        2.4176307847
 H          6.7629038447       -0.4565828827        1.4134082464
 H          6.7709929336        1.4288422289       -0.1219021043
 H          5.6384041285        2.8117621434       -1.8178268857
 H          3.3371052389        2.2646377885       -2.5180733777
 H          2.1469933605        0.3826633964       -1.5108891974
 H          0.9677827522        0.3977556126        0.6299260024
  57
        -86.18841786
 C         -2.0890985875        3.4006947893       -2.8311773218
 C         -2.0969497618        2.1454102974       -3.4205877832
 C         -2.0019035656        0.9960563571       -2.6473280403
 C         -1.9005079774        1.1326703658       -1.2805161089
 C         -1.8918851089        2.3992531278       -0.6784209961
 C         -1.9861960618        3.5412768128       -1.4564246444
 C         -1.7741740631        2.2247837369        0.7608640797
 C         -1.7091684692        3.1472379420        1.7920456937
 C         -1.5863344516        2.6820094679        3.0915393131
 C         -1.5292506961        1.3225229919        3.3594936413
 C         -1.5947473637        0.3919076203        2.3311234103
 C         -1.7189557229        0.8514330211        1.0385094648
 C         -1.7843012002        0.0481306390       -0.2378622056
 C         -2.9070726031       -0.9586699621       -0.2809940505
 C         -4.2603787025       -0.7333069550       -0.1606020807
 C         -5.1202904756       -1.8212310159       -0.2320573594
 C         -4.6282919166       -3.1040326140       -0.4206116733
 C         -3.2673314905       -3.3342627678       -0.5431677927
 C         -2.4029848355       -2.2540665586       -0.4732816139
 C         -0.9534939893       -2.1773262072       -0.5548812029
 C          0.0153853542       -3.1537021159       -0.7204884989
 C          1.3479829859       -2.7775586091       -0.7212363628
 C          1.7274515818       -1.4468068931       -0.5560672782
 C          3.1506322551       -1.0699891893       -0.5293158939
 C          3.9692055799       -1.4153021505       -1.5781382649
 C          5.3120831347       -1.0191300089       -1.6108949793
 C          5.8352121939       -0.2760681592       -0.5906449239
 C          5.0412780169        0.0763808368        0.5204835239
 C          5.5700055049        0.8216677542        1.5956326334
 C          4.8000009461        1.1329123044        2.6800453458
 C          3.4687176957        0.6958162327        2.7437004054
 C          2.9242764530       -0.0217205091        1.7155495313
 C          3.6818748834       -0.3332390716        0.5657603660
 C          0.7482395094       -0.4600541382       -0.4214534368
 C         -0.5737069755       -0.8341379606       -0.4184547355
 H         -2.1642059298        4.2807313986       -3.4534544156
 H         -2.1782621453        2.0605928726       -4.4943033246
 H         -2.0089813717        0.0176527122       -3.1055608247
 H         -1.9803814234        4.5211393606       -1.0023171572
 H         -1.7508193171        4.2070661878        1.5885101369
 H         -1.5334179422        3.3874886323        3.9081361962
 H         -1.4327494526        0.9833372861        4.3804918447
 H         -1.5503362559       -0.6676748926        2.5388561809
 H         -4.6422200897        0.2666324702       -0.0134907012
 H         -6.1851969269       -1.6663106007       -0.1393792169
 H         -5.3168517677       -3.9349924478       -0.4721235100
 H         -2.8892993801       -4.3353425406       -0.6893010742
 H         -0.2598312408       -4.1917090830       -0.8356931495
 H          2.1170220232       -3.5293910022       -0.8272104160
 H          3.5615700242       -1.9787070726       -2.4055514883
 H          5.9245853160       -1.2967596951       -2.4564262151
 H          6.8658823420        0.0480436852       -0.6158185298
 H          6.6030215872        1.1362910328        1.5459411200
 H          5.2124949164        1.7039507165        3.4990805813
 H          2.8740633812        0.9264822961        3.6156420980
 H          1.9033631601       -0.3670001219        1.7839391167
 H          1.0311935020        0.5786292562       -0.3258982069
  57
        -86.18820340
 C         -1.5878181980        3.6813295543       -2.1095071034
 C         -1.3786826757        2.5166818621       -2.8327117047
 C         -1.4225660130        1.2760314678       -2.2107909739
 C         -1.6761070395        1.2302012687       -0.8576763021
 C         -1.8825040426        2.4043391922       -0.1198038795
 C         -1.8406855172        3.6382315223       -0.7477251427
 C         -2.1166899488        2.0400630695        1.2686338843
 C         -2.3722024868        2.8179273950        2.3856624274
 C         -2.5575156852        2.1865495107        3.6051748074
 C         -2.4880891438        0.8055253187        3.7097852494
 C         -2.2346611988        0.0190178219        2.5937856625
 C         -2.0508708207        0.6432462192        1.3796968656
 C         -1.7889489609        0.0155177480        0.0333930780
 C         -2.8891612439       -0.9210975434       -0.4095087933
 C         -4.2356484393       -0.6605455155       -0.5357918360
 C         -5.0686602862       -1.6841344244       -0.9680806505
 C         -4.5579857687       -2.9384875359       -1.2666063634
 C         -3.2034349628       -3.2027739311       -1.1437561834
 C         -2.3665855272       -2.1861369662       -0.7139302486
 C         -0.9318725369       -2.1575215580       -0.4880683914
 C          0.0388916945       -3.1316330562       -0.6522149509
 C          1.3527481046       -2.8144239840       -0.3592035650
 C          1.7132306439       -1.5458863092        0.0957830463
 C          3.1261197179       -1.2764396477        0.4140029369
 C          3.7829242670       -2.1244660673        1.2756514647
 C          5.1217962477       -1.9152018911        1.6259584334
 C          5.8076398503       -0.8522996401        1.1101156783
 C          5.1824107673        0.0343672178        0.2094075142
 C          5.8830709180        1.1246134441       -0.3483008870
 C          5.2800302239        1.9642586804       -1.2407210578
 C          3.9507696546        1.7383036599       -1.6274608339
 C          3.2431118893        0.6923575391       -1.1038436950
 C          3.8254500604       -0.1773851698       -0.1566349898
 C          0.7305062378       -0.5683207448        0.2691622848
 C         -0.5757149695       -0.8799313012       -0.0305476428
 H         -1.5531474646        4.6350812365       -2.6158983164
 H         -1.1820058957        2.5748764341       -3.8932178310
 H         -1.2639207794        0.3677458468       -2.7743641907
 H         -2.0017562040        4.5481403906       -0.1887581534
 H         -2.4276079715        3.8937526693        2.3085554815
 H         -2.7590758902        2.7775064745        4.4868751073
 H         -2.6350228221        0.3355813084        4.6711628638
 H         -2.1841641871       -1.0571654064        2.6749281161
 H         -4.6342328576        0.3163158504       -0.3030251122
 H         -6.1279885297       -1.5009618645       -1.0725239980
 H         -5.2260229689       -3.7196434838       -1.5993951346
 H         -2.8089615473       -4.1805599520       -1.3776801944
 H         -0.2215815957       -4.1180208374       -1.0063576735
 H          2.1267947287       -3.5556356705       -0.4979011923
 H          3.2476599357       -2.9582243021        1.7075347390
 H          5.6021427621       -2.5988127537        2.3108509749
 H          6.8394348757       -0.6772765728        1.3797044703
 H          6.9128632092        1.2779360908       -0.0573509106
 H          5.8235768111        2.7971909672       -1.6624616723
 H          3.4890141166        2.3960110249       -2.3494688561
 H          2.2271099124        0.5171651384       -1.4249143982
 H          0.9936085997        0.4090121496        0.6482417594
  57
        -86.18806707
 C         -2.1588665573        4.0823204850       -1.4915096317
 C         -1.8550349956        3.0709263541       -2.3902645852
 C         -1.7606052483        1.7508844810       -1.9701441313
 C         -1.9760187838        1.4697855402       -0.6390231148
 C         -2.2824197026        2.4884838259        0.2749278882
 C         -2.3750523867        3.8029319508       -0.1515536988
 C         -2.4541976751        1.8915897394        1.5901595861
 C         -2.7576215803        2.4553627682        2.8184190016
 C         -2.8583627020        1.6245758739        3.9229464799
 C         -2.6609625779        0.2569012318        3.8064963052
 C         -2.3562309405       -0.3154658938        2.5787454123
 C         -2.2557370624        0.5079319147        1.4791310379
 C         -1.9360892012        0.1295123845        0.0529756274
 C         -2.8973933358       -0.8790013375       -0.5279782050
 C         -4.2626139269       -0.7713418625       -0.6739841502
 C         -4.9524942432       -1.8359525277       -1.2386080593
 C         -4.2831449863       -2.9806159831       -1.6447470444
 C         -2.9096953926       -3.0921543984       -1.4990302517
 C         -2.2144458000       -2.0338230915       -0.9373824001
 C         -0.7992296365       -1.8542616846       -0.6595193940
 C          0.2897600361       -2.6874690848       -0.8584452730
 C          1.5465268019       -2.2419568181       -0.4884485832
 C          1.7333093114       -0.9796999059        0.0757440329
 C          3.0728675553       -0.5387471340        0.5011863219
 C          3.2595198260       -0.1442867148        1.8054671216
 C          4.5231953194        0.2302951505        2.2776026232
 C          5.6033596188        0.2104674726        1.4412020523
 C          5.4550092283       -0.1581731182        0.0882327671
 C          6.5528825769       -0.1581413400       -0.7980435355
 C          6.3924961866       -0.4850099595       -2.1144617404
 C          5.1197204126       -0.8104345575       -2.6064404245
 C          4.0371030632       -0.8280908563       -1.7720088705
 C          4.1725817353       -0.5266799451       -0.3998129889
 C          0.6328454892       -0.1474118076        0.2867594683
 C         -0.6156315252       -0.5883559423       -0.0842841357
 H         -2.2275410254        5.1019795786       -1.8418511192
 H         -1.6896348158        3.3129285576       -3.4298481661
 H         -1.5242607812        0.9622637963       -2.6698852777
 H         -2.6115865799        4.5941786069        0.5443440762
 H         -2.9122373154        3.5198657579        2.9146791798
 H         -3.0944021943        2.0472090447        4.8888256788
 H         -2.7450622096       -0.3707745213        4.6814632585
 H         -2.2014984402       -1.3808473094        2.4867273678
 H         -4.7830042033        0.1207986402       -0.3568150497
 H         -6.0235265269       -1.7717496842       -1.3625636089
 H         -4.8414340834       -3.7962190879       -2.0810662643
 H         -2.3931569801       -3.9856872030       -1.8171649456
 H          0.1629440354       -3.6696962461       -1.2893036923
 H          2.4031124736       -2.8882354714       -0.6174581024
 H          2.4190331453       -0.1490881973        2.4851818610
 H          4.6353421118        0.5238573822        3.3112466416
 H          6.5854443144        0.4831161864        1.8005852135
 H          7.5257529700        0.1139219100       -0.4132161615
 H          7.2382306844       -0.4820974067       -2.7866117465
 H          5.0000816912       -1.0424038694       -3.6547652373
 H          3.0576122778       -1.0613422892       -2.1621694280
 H          0.7684943393        0.8321401293        0.7225549509
  57
        -86.18769925
 C         -1.8410331241        3.4583814014       -2.7686421378
 C         -1.7790535524        2.2215927692       -3.3926676649
 C         -1.7537525948        1.0491633552       -2.6488367439
 C         -1.7905228301        1.1425854893       -1.2748609231
 C         -1.8497348265        2.3920499504       -0.6385402153
 C         -1.8766365210        3.5569261059       -1.3869024428
 C         -1.8696349514        2.1783713310        0.8000163100
 C         -1.9252792187        3.0691141372        1.8595175772
 C         -1.9298534482        2.5654267411        3.1504749595
 C         -1.8781142839        1.1992406339        3.3834378813
 C         -1.8231642667        0.3003812228        2.3268475588
 C         -1.8208312141        0.7992249225        1.0430938124
 C         -1.7743848603        0.0307196797       -0.2599568468
 C         -2.9168897184       -0.9514588891       -0.3546326330
 C         -4.2677170131       -0.6895888169       -0.4099597682
 C         -5.1469469154       -1.7633223188       -0.4584111396
 C         -4.6766995205       -3.0678454013       -0.4418736161
 C         -3.3181798040       -3.3346803082       -0.3840803229
 C         -2.4343801450       -2.2688307899       -0.3430442867
 C         -0.9821421058       -2.2266772319       -0.3060268039
 C         -0.0315008387       -3.2341360852       -0.2838862093
 C          1.3075652486       -2.8857769425       -0.2804271957
 C          1.7160605691       -1.5519615787       -0.3102862013
 C          3.1483111734       -1.2211957961       -0.3773711332
 C          3.9309186981       -1.8521629706       -1.3175449606
 C          5.2819179002       -1.5256092220       -1.4808658849
 C          5.8506005108       -0.5522715246       -0.7090484567
 C          5.0962776885        0.1055359284        0.2842490832
 C          5.6731069914        1.1018229319        1.0999932960
 C          4.9470218209        1.7122272232        2.0825456802
 C          3.6168881003        1.3298311016        2.3100460145
 C          3.0263794479        0.3728114061        1.5324153030
 C          3.7320621584       -0.2437863742        0.4765269896
 C          0.7542813573       -0.5383188855       -0.3307305974
 C         -0.5760099967       -0.8839715095       -0.3133620733
 H         -1.8610073957        4.3567837097       -3.3684310513
 H         -1.7509174496        2.1697561975       -4.4711717373
 H         -1.7065849243        0.0858738186       -3.1357480006
 H         -1.9234997943        4.5221122886       -0.9045885430
 H         -1.9661387136        4.1339794601        1.6845380325
 H         -1.9765969371        3.2456502824        3.9885813083
 H         -1.8842755905        0.8295128788        4.3983667313
 H         -1.7855907893       -0.7646576651        2.5059074092
 H         -4.6331985552        0.3271121886       -0.4182283717
 H         -6.2102535780       -1.5799810458       -0.5067416854
 H         -5.3804362383       -3.8869109019       -0.4753526056
 H         -2.9569443325       -4.3524148289       -0.3729354175
 H         -0.3269706908       -4.2728454635       -0.2674621957
 H          2.0601880194       -3.6603935151       -0.2444757168
 H          3.4855070301       -2.5934129705       -1.9657125660
 H          5.8624047343       -2.0381350053       -2.2342021598
 H          6.8863658494       -0.2749714448       -0.8437602830
 H          6.7072379682        1.3687778873        0.9329191117
 H          5.3947257642        2.4778695121        2.6993103942
 H          3.0602355222        1.7941403963        3.1111326564
 H          2.0097051114        0.0705751701        1.7353163002
 H          1.0536965873        0.4985423073       -0.3840369093
  57
        -86.18710067
 C         -2.5824577063        4.0809965725       -1.5455872323
 C         -2.3569355349        3.0771233235       -2.4752626008
 C         -2.1395091954        1.7670305034       -2.0694355014
 C         -2.1555437539        1.4869704687       -0.7207362227
 C         -2.3866799378        2.4979686237        0.2239194042
 C         -2.5981736576        3.8031752595       -0.1881021257
 C         -2.3659586869        1.9032828176        1.5511240336
 C         -2.5045928894        2.4661021450        2.8092181219
 C         -2.4223809650        1.6394874171        3.9184053074
 C         -2.2102573130        0.2761696209        3.7774676157
 C         -2.0706839380       -0.2950976708        2.5198021491
 C         -2.1505869709        0.5246666653        1.4156840177
 C         -1.9763505601        0.1537303058       -0.0381338009
 C         -2.9268622454       -0.9057521257       -0.5382113717
 C         -4.3029831349       -0.8676491403       -0.5803555162
 C         -4.9794238507       -1.9679956506       -1.0902746844
 C         -4.2862554108       -3.0778979491       -1.5493747904
 C         -2.9018317008       -3.1196807706       -1.5088354007
 C         -2.2201247116       -2.0268709401       -0.9990935026
 C         -0.7998112384       -1.7865627178       -0.8068734848
 C          0.3068464453       -2.5942345012       -1.0140454366
 C          1.5548553232       -2.1260134704       -0.6422655864
 C          1.7206708955       -0.8572627860       -0.0842581635
 C          3.0303189938       -0.4279420666        0.4321979783
 C          3.0936113416        0.0365045583        1.7269787559
 C          4.3142544849        0.3709582041        2.3235767625
 C          5.4808272338        0.2276683270        1.6269377321
 C          5.4648336652       -0.2182313337        0.2894355845
 C          6.6583133781       -0.3546142700       -0.4505338372
 C          6.6331591243       -0.7543100212       -1.7562037713
 C          5.4066041182       -1.0097947499       -2.3870568583
 C          4.2328736340       -0.8957240773       -1.6951947140
 C          4.2251742639       -0.5297034089       -0.3321084971
 C          0.6058157371       -0.0352788593        0.0961847555
 C         -0.6358136519       -0.5065277821       -0.2583994844
 H         -2.7525322217        5.0924274530       -1.8853482110
 H         -2.3531802099        3.3168225862       -3.5284690979
 H         -1.9675078856        0.9844701139       -2.7942240329
 H         -2.7812564431        4.5869153151        0.5321538627
 H         -2.6659120813        3.5276625626        2.9248581511
 H         -2.5225073420        2.0621710672        4.9076456761
 H         -2.1481452280       -0.3482032026        4.6567315998
 H         -1.8986761734       -1.3560062012        2.4083191084
 H         -4.8424961731       -0.0023992505       -0.2231657549
 H         -6.0587174487       -1.9586824383       -1.1309471581
 H         -4.8342565488       -3.9207998566       -1.9449844179
 H         -2.3663415085       -3.9860895240       -1.8679684576
 H          0.1977149168       -3.5845136430       -1.4311469829
 H          2.4172678860       -2.7684413934       -0.7477138144
 H          2.1844708759        0.1125891533        2.3067692062
 H          4.3237163866        0.7244823147        3.3443704360
 H          6.4312087185        0.4583719650        2.0867043297
 H          7.5957904308       -0.1306504014        0.0389283192
 H          7.5520249855       -0.8611725172       -2.3141562291
 H          5.3961445847       -1.2912679458       -3.4300863731
 H          3.2921413271       -1.0703605401       -2.1957416320
 H          0.7211929197        0.9525872552        0.5187675736
  57
        -86.18671820
 C         -1.6686114441        3.9424012558       -1.6791037557
 C         -1.4251205582        2.8649499013       -2.5176467319
 C         -1.4696298124        1.5637590305       -2.0351548503
 C         -1.7623694152        1.3685184368       -0.7033288113
 C         -2.0100009356        2.4538955288        0.1493612135
 C         -1.9640323015        3.7492478226       -0.3392327644
 C         -2.2815268604        1.9399294079        1.4827205980
 C         -2.5879990133        2.5882689080        2.6677175699
 C         -2.8012081573        1.8257249973        3.8049169390
 C         -2.7094605182        0.4425756414        3.7628694336
 C         -2.4034400413       -0.2143457042        2.5785665614
 C         -2.1927595041        0.5410022955        1.4461583645
 C         -1.8593185186        0.0659861874        0.0526027422
 C         -2.8830635137       -0.8913578870       -0.5080873293
 C         -4.2333116351       -0.6878484046       -0.6891242224
 C         -4.9917280861       -1.7227609568       -1.2196259041
 C         -4.4040553515       -2.9321792151       -1.5597024490
 C         -3.0464262118       -3.1403920987       -1.3777449823
 C         -2.2834258607       -2.1127732401       -0.8477649129
 C         -0.8640392763       -2.0292924029       -0.5434675237
 C          0.1619471363       -2.9479814362       -0.6919314126
 C          1.4429478442       -2.5811182388       -0.3154902362
 C          1.7090577323       -1.3164914098        0.2021358808
 C          3.0882465942       -0.9528706935        0.5990814822
 C          3.5234680178       -1.2017966797        1.8757751154
 C          4.8261700278       -0.8658804008        2.2714825776
 C          5.6877032114       -0.2838950324        1.3855689249
 C          5.2804437537       -0.0104826566        0.0629559366
 C          6.1483657205        0.5883883774       -0.8740857971
 C          5.7326421407        0.8448152080       -2.1500906768
 C          4.4276509541        0.5154028565       -2.5472974711
 C          3.5616280290       -0.0657662868       -1.6641341605
 C          3.9613403790       -0.3460265961       -0.3401884293
 C          0.6768155298       -0.3927373244        0.3556639468
 C         -0.5966395425       -0.7574255926       -0.0164840846
 H         -1.6256452800        4.9457512960       -2.0772065185
 H         -1.1962045642        3.0405989428       -3.5585344725
 H         -1.2788666044        0.7238313393       -2.6878350632
 H         -2.1518400282        4.5913032709        0.3104054163
 H         -2.6614613979        3.6651784513        2.7049829524
 H         -3.0434931588        2.3143273992        4.7376105782
 H         -2.8791692742       -0.1307272700        4.6624709217
 H         -2.3333505155       -1.2920411200        2.5447504617
 H         -4.6895705233        0.2549022841       -0.4236968183
 H         -6.0524109328       -1.5846021389       -1.3695228965
 H         -5.0152990950       -3.7226977351       -1.9707415741
 H         -2.5935192224       -4.0845205591       -1.6425663551
 H         -0.0301337354       -3.9314380993       -1.0946887868
 H          2.2589510616       -3.2812658931       -0.4250514254
 H          2.8523898793       -1.6626182022        2.5868109857
 H          5.1388571772       -1.0736815245        3.2844863517
 H          6.6936181639       -0.0238451430        1.6832019130
 H          7.1519607710        0.8407117633       -0.5614122394
 H          6.4045443328        1.3026697133       -2.8615167614
 H          4.1124147851        0.7263778427       -3.5588459236
 H          2.5558158524       -0.3186696211       -1.9676053158
 H          0.8816917423        0.5898310090        0.7563492157
