  52
  -66.0109608436000       0.487662296173728      !
 C         -5.2256783181       -2.3932377435        0.2621569623
 C         -3.8984788858       -1.7016543274        0.1860078717
 C         -2.8996754493       -1.9908840910        1.1063195089
 C         -1.6590320824       -1.3795905905        1.0464370939
 C         -0.6274245630       -1.7259933822        2.0803658611
 C         -1.3803813379       -0.4285463275        0.0485336114
 B         -0.0004001426        0.3162449913        0.0009085386
 C          0.0021786421        1.8802256259        0.0008115497
 C         -1.0184147840        2.6101624278        0.6188469552
 C         -1.0122741115        3.9920159242        0.6293325518
 C          0.0079460583        4.6859482218       -0.0007226516
 C          1.0252809096        3.9872573556       -0.6301654298
 C          1.0257525588        2.6054677148       -0.6181209718
 C          1.3777739538       -0.4318272918       -0.0469202985
 C          2.3875096903       -0.1463253631        0.8830243432
 C          2.1773324448        0.8374625668        2.0004648239
 C          3.6172826129       -0.7860148746        0.8085221244
 C          3.8925720319       -1.7119671947       -0.1828583612
 C          5.2220514501       -2.3983851122       -0.2684528642
 C          2.8939825239       -1.9971110018       -1.1048090634
 C          1.6550875567       -1.3823337839       -1.0457001803
 C          0.6251726212       -1.7222178551       -2.0836616908
 C         -2.3900085133       -0.1399162927       -0.8806318389
 C         -2.1775306758        0.8408682105       -2.0001834901
 C         -3.6215602914       -0.7758277955       -0.8050568975
 H         -5.9422428341       -1.9369931831       -0.4165615133
 H         -5.6235547160       -2.3490829372        1.2747281949
 H         -5.1178048022       -3.4443113899       -0.0068002798
 H         -3.0972908418       -2.7146214003        1.8856388130
 H         -0.9896071089       -2.5156086448        2.7349255758
 H          0.2934307817       -2.0586567201        1.6062778032
 H         -0.3890818667       -0.8565141780        2.6912608139
 H         -1.8218654977        2.0752817131        1.1068404371
 H         -1.8074231129        4.5330858800        1.1231161589
 H          0.0102566253        5.7666340617       -0.0012787678
 H          1.8225415394        4.5245077090       -1.1246270376
 H          1.8267072949        2.0667444268       -1.1062015112
 H          2.6549640677        0.4814800265        2.9121076199
 H          1.1227267489        1.0040771886        2.1974780472
 H          2.6263337265        1.7968694805        1.7411005424
 H          4.3752976373       -0.5524724328        1.5443139738
 H          5.7000839775       -2.1809048236       -1.2232554008
 H          5.8815601970       -2.0722516418        0.5320700893
 H          5.0971588782       -3.4785496105       -0.1987596727
 H          3.0905743784       -2.7209152444       -1.8843779816
 H          0.9749540784       -2.5299474302       -2.7219682892
 H          0.4142335574       -0.8570700125       -2.7108598363
 H         -0.3079002145       -2.0249628952       -1.6144627244
 H         -2.6428382806        1.7954690561       -1.7524981113
 H         -2.6383319639        0.4732889374       -2.9159093827
 H         -1.1226609563        1.0197466384       -2.1842813849
 H         -4.3795428845       -0.5397419917       -1.5399383469
  52
  -66.0105426229000       0.313269600398057      !
 C         -5.2377743301       -2.3784509122        0.3029398606
 C         -3.9002403156       -1.7098747174        0.2040522460
 C         -2.9007817594       -1.9877722528        1.1265241824
 C         -1.6616214038       -1.3736202178        1.0604839549
 C         -0.6275521760       -1.7090194387        2.0953971885
 C         -1.3854284061       -0.4306922729        0.0545172097
 B         -0.0050858631        0.3134834460        0.0063497129
 C          0.0032613438        1.8781627228       -0.0075617003
 C         -1.0469711907        2.6194075204        0.5451325671
 C         -1.0360790735        4.0012052143        0.5389209044
 C          0.0220575015        4.6841545422       -0.0388030410
 C          1.0714737656        3.9745108086       -0.5995331440
 C          1.0642044605        2.5929361659       -0.5744263340
 C          1.3727988424       -0.4362378519       -0.0374266501
 C          2.3730840809       -0.1852543981        0.9132622213
 C          2.1442203940        0.7219582735        2.0898918152
 C          3.6075040429       -0.8118263451        0.8207672020
 C          3.8985731875       -1.6931113133       -0.2079117641
 C          5.2370025369       -2.3631932566       -0.2849544023
 C          2.9090080410       -1.9483298780       -1.1456400078
 C          1.6642335029       -1.3444575426       -1.0699531467
 C          0.6448618449       -1.6488476662       -2.1289756689
 C         -2.3964407088       -0.1524353934       -0.8767224186
 C         -2.1881355658        0.8199142199       -2.0046114303
 C         -3.6258967852       -0.7913878362       -0.7951796037
 H         -5.8394929432       -1.8976145776        1.0752106556
 H         -5.1259203627       -3.4269737987        0.5725345169
 H         -5.7774709789       -2.3116153362       -0.6387691075
 H         -3.0952880670       -2.7055654766        1.9121394410
 H         -0.3671693103       -0.8262337736        2.6766982094
 H         -0.9980217618       -2.4727864373        2.7754793755
 H          0.2817718810       -2.0733869791        1.6218753284
 H         -1.8778169332        2.0933116445        0.9950701496
 H         -1.8563390998        4.5505378443        0.9795782906
 H          0.0290690114        5.7646882520       -0.0514999516
 H          1.8994692820        4.5030393337       -1.0507819457
 H          1.8911462720        2.0460994369       -1.0063870271
 H          2.8852794844        1.5215107719        2.0977280391
 H          2.2541235253        0.1598933899        3.0183457219
 H          1.1545065310        1.1681366751        2.0686041774
 H          4.3590359169       -0.6044626691        1.5708595860
 H          5.3920372119       -2.8128202205       -1.2628794548
 H          6.0360449204       -1.6486284393       -0.0947709719
 H          5.3068447721       -3.1491903213        0.4678556768
 H          3.1136243648       -2.6358002851       -1.9554323304
 H          0.4457289317       -0.7648967392       -2.7332825361
 H         -0.2947982213       -1.9606002970       -1.6787890661
 H          0.9984056659       -2.4392662040       -2.7870448327
 H         -2.6578473139        1.7742524809       -1.7653800751
 H         -2.6469982011        0.4428272034       -2.9172956198
 H         -1.1343389368        1.0022644270       -2.1898077820
 H         -4.3849275717       -0.5644635551       -1.5319068567
  52
  -66.0089040696000       5.532116209572602E-002 !
 C         -5.2453958258       -2.3394523792        0.3476110311
 C         -3.9073892339       -1.6751430089        0.2275947537
 C         -2.9001172580       -1.9453315621        1.1448214068
 C         -1.6534810260       -1.3516927165        1.0500521373
 C         -0.6148611122       -1.6794403761        2.0832220203
 C         -1.3745763600       -0.4361332862        0.0182717192
 B          0.0021471517        0.3153929045       -0.0296275359
 C         -0.0031250730        1.8805112885       -0.0082691750
 C         -1.0646084004        2.5960991264        0.5573254730
 C         -1.0632596856        3.9773006953        0.5970629917
 C         -0.0034288775        4.6860625746        0.0548124767
 C          1.0555782622        4.0026008388       -0.5207382912
 C          1.0570910039        2.6209598535       -0.5432312911
 C          1.3833911644       -0.4276714845       -0.0686157235
 C          2.3853362283       -0.1580775170        0.8765045879
 C          2.1733652331        0.8163883497        2.0020396091
 C          3.6096707962       -0.8051061276        0.8075633117
 C          3.8914008877       -1.7228892967       -0.1928966332
 C          5.2226727664       -2.4095436924       -0.2421699527
 C          2.9049778570       -1.9874188883       -1.1302792182
 C          1.6683627163       -1.3637013939       -1.0766598696
 C          0.6492944747       -1.6763964926       -2.1332886049
 C         -2.3880563442       -0.1786523150       -0.9160464810
 C         -2.1631823778        0.7078012134       -2.1080940827
 C         -3.6273944010       -0.7956551185       -0.8030676758
 H         -5.5946261832       -2.3164857688        1.3784862596
 H         -5.1744589792       -3.3842210811        0.0432897064
 H         -5.9816933806       -1.8488018314       -0.2845058315
 H         -3.0977548534       -2.6366833682        1.9530328484
 H         -0.3535989532       -0.7944885433        2.6610918759
 H         -0.9822314087       -2.4400129360        2.7686213399
 H          0.2936460666       -2.0450014931        1.6091834912
 H         -1.8986068363        2.0498779898        0.9760005384
 H         -1.8922263604        4.5063095401        1.0458333220
 H         -0.0035038288        5.7664246141        0.0794635165
 H          1.8832896550        4.5514554640       -0.9478099865
 H          1.8876100920        2.0938967225       -0.9925695950
 H          2.6060319299        0.4287348998        2.9231753712
 H          1.1201725620        1.0215588898        2.1662876106
 H          2.6678511592        1.7610722653        1.7737092508
 H          4.3633484977       -0.5871411313        1.5524937093
 H          5.3098828466       -3.0280136150       -1.1321294993
 H          6.0295125556       -1.6777277438       -0.2441752790
 H          5.3528652161       -3.0444493499        0.6341960226
 H          3.1032407849       -2.6995693343       -1.9200797830
 H          0.4344697121       -0.7894558207       -2.7275200969
 H         -0.2830179655       -2.0055274169       -1.6794714302
 H          1.0108643443       -2.4576387475       -2.7982386404
 H         -1.2536676742        1.2921018067       -2.0103059455
 H         -3.0050337071        1.3854859974       -2.2415483706
 H         -2.0843366300        0.0973421160       -3.0087978968
 H         -4.3888925115       -0.5787834138       -1.5402526372
  52
  -66.0087978429000       4.943936490958166E-002 !
 C         -5.0585510063       -2.6077379534        0.2168202735
 C         -3.7820967620       -1.8230959075        0.1817167665
 C         -2.7857392294       -2.0203935216        1.1259051502
 C         -1.5918951303       -1.3196843343        1.0770792145
 C         -0.5598732360       -1.5735266362        2.1373147633
 C         -1.3581027549       -0.3728112077        0.0646061824
 B          0.0047661679        0.4047349202        0.0021374276
 C          0.0014071415        1.9686341581       -0.0002750927
 C         -1.0504481514        2.6954989211        0.5695090735
 C         -1.0537861997        4.0772262000        0.5711822729
 C         -0.0113859233        4.7743574594       -0.0183433602
 C          1.0380417119        4.0793168448       -0.5975360496
 C          1.0475308951        2.6976373384       -0.5777172492
 C          1.3677395504       -0.3719345488       -0.0605466372
 C          2.3753785720       -0.1798440694        0.8939772616
 C          2.2208603901        0.7765321999        2.0435725133
 C          3.5517203365       -0.9172479168        0.8365954617
 C          3.7757720488       -1.8490142373       -0.1612152640
 C          5.0447914246       -2.6444338877       -0.2161017832
 C          2.7913356480       -2.0192547807       -1.1259585990
 C          1.6064395906       -1.3061533189       -1.0852468250
 C          0.5870861956       -1.5278514904       -2.1647225144
 C         -2.3756908248       -0.1602517947       -0.8770778400
 C         -2.2250640476        0.8086047312       -2.0170034088
 C         -3.5588911386       -0.8826730812       -0.8109088060
 H         -5.1021578488       -3.2412915245        1.0993184171
 H         -5.1353525663       -3.2409676825       -0.6670585313
 H         -5.9189933793       -1.9400412395        0.2222767023
 H         -2.9414122018       -2.7427645407        1.9159438666
 H         -0.2682273406       -0.6437323699        2.6207878339
 H         -0.9459151177       -2.2527780801        2.8943332874
 H          0.3335296744       -2.0150926368        1.6990030840
 H         -1.8711220755        2.1570653958        1.0230466649
 H         -1.8730792243        4.6157505098        1.0264125355
 H         -0.0165960406        5.8549712247       -0.0255234588
 H          1.8528349944        4.6193322495       -1.0590013607
 H          1.8734415158        2.1610019504       -1.0239081041
 H          2.2533662679        0.2327025536        2.9880460550
 H          1.2864936037        1.3260957713        1.9908529219
 H          3.0435994147        1.4911322394        2.0468958977
 H          4.3043621308       -0.7601811755        1.5977246315
 H          5.5256598291       -2.6769062042        0.7587809933
 H          4.8462941829       -3.6623842338       -0.5459971487
 H          5.7410547249       -2.1931610755       -0.9239005734
 H          2.9532891426       -2.7331820257       -1.9224189980
 H          0.3407177981       -0.5898086926       -2.6583485099
 H         -0.3313190980       -1.9322913377       -1.7432667047
 H          0.9629342297       -2.2241468383       -2.9112277353
 H         -2.9966140410        1.5760790980       -1.9579125859
 H         -2.3491333045        0.2888089133       -2.9670026119
 H         -1.2554125282        1.2955536237       -2.0106881505
 H         -4.3226001542       -0.7083572209       -1.5571283031
  52
  -66.0087818279000       4.860857603676053E-002 !
 C         -5.2445320683       -2.3598861743        0.2538376779
 C         -3.8998046678       -1.7022919277        0.1820413060
 C         -2.9090166078       -1.9837396921        1.1094047390
 C         -1.6654573479       -1.3731345893        1.0511338648
 C         -0.6442517724       -1.7081752145        2.0990509826
 C         -1.3800210514       -0.4324098639        0.0481666581
 B          0.0016882371        0.3092919154       -0.0042106584
 C          0.0019743752        1.8729461813       -0.0003621894
 C         -1.0178873135        2.5967102896        0.6262261578
 C         -1.0146224552        3.9784458372        0.6466987456
 C          0.0033781213        4.6787037703        0.0201324879
 C          1.0195341813        3.9863505139       -0.6181485840
 C          1.0211811457        2.6043583692       -0.6184056449
 C          1.3805267414       -0.4381038062       -0.0547887380
 C          2.3950828978       -0.1411238523        0.8695369638
 C          2.1811561380        0.8514282959        1.9786395829
 C          3.6242120801       -0.7770653169        0.7942266295
 C          3.8980505127       -1.7131101002       -0.1917465254
 C          5.2425082737       -2.3707655036       -0.2675091980
 C          2.8970821210       -2.0106882221       -1.1031457357
 C          1.6548742076       -1.3978232027       -1.0433013156
 C          0.6211812315       -1.7558071750       -2.0711031385
 C         -2.3862237142       -0.1468660205       -0.8884345502
 C         -2.1628735421        0.8353993810       -2.0048120722
 C         -3.6160915580       -0.7813801413       -0.8155337763
 H         -5.9867402039       -1.6549133119        0.6298590446
 H         -5.2228102772       -3.2196919031        0.9191687387
 H         -5.5664624957       -2.6863753352       -0.7334773691
 H         -3.1084429178       -2.7004111315        1.8947805327
 H         -0.9811666411       -2.5411327875        2.7119899255
 H          0.3066690211       -1.9699771385        1.6410153589
 H         -0.4736409345       -0.8523443828        2.7516324625
 H         -1.8186886980        2.0565638111        1.1126226958
 H         -1.8093505992        4.5144594966        1.1463483210
 H          0.0043754810        5.7593219561        0.0288773823
 H          1.8150695875        4.5286072374       -1.1096819850
 H          1.8212475707        2.0709978533       -1.1136875129
 H          2.7367978079        0.5531525846        2.8655688322
 H          1.1306170642        0.9448820382        2.2359260250
 H          2.5395624343        1.8347168105        1.6741804850
 H          4.3879211806       -0.5365790501        1.5216184384
 H          5.5736004290       -2.6850419112        0.7207322576
 H          5.2156928243       -3.2385276628       -0.9222094589
 H          5.9805463702       -1.6696317491       -0.6585283910
 H          3.0882861833       -2.7416786077       -1.8773718254
 H         -0.3090655865       -2.0539364567       -1.5926957563
 H          0.9704326087       -2.5723602706       -2.6990522372
 H          0.4052884530       -0.9011469520       -2.7110400118
 H         -2.7099495658        0.5295844428       -2.8940751637
 H         -1.1102995481        0.9286271724       -2.2527897788
 H         -2.5245489281        1.8208043764       -1.7116449202
 H         -4.3725709160       -0.5528815481       -1.5544037438
  52
  -66.0087234988000       4.569900038614669E-002 !
 C         -5.2369656554       -2.3608481922        0.2742677729
 C         -3.8947676630       -1.6982197827        0.1989747909
 C         -2.9069842722       -1.9555052258        1.1371808888
 C         -1.6638752180       -1.3463585839        1.0684840016
 C         -0.6464083308       -1.6542509744        2.1281762344
 C         -1.3741607344       -0.4297804389        0.0434389300
 B          0.0056369258        0.3156806166       -0.0050335282
 C          0.0025869727        1.8800200098        0.0030704490
 C         -1.0382650943        2.5986019194        0.6012855603
 C         -1.0409138217        3.9801598721        0.6240391658
 C         -0.0095520002        4.6855213455        0.0256600388
 C          1.0273841632        3.9985123679       -0.5846921526
 C          1.0366193409        2.6167009332       -0.5845323415
 C          1.3833060826       -0.4334233146       -0.0561468162
 C          2.3922154940       -0.1616889018        0.8801234463
 C          2.1791746490        0.8043340379        2.0124100444
 C          3.6202561891       -0.8013108251        0.7989241953
 C          3.8967487536       -1.7145206662       -0.2059614968
 C          5.2228439910       -2.4095153209       -0.2729601915
 C          2.8996700466       -1.9873586437       -1.1308899875
 C          1.6599065461       -1.3721424920       -1.0648252560
 C          0.6293176527       -1.7011300938       -2.1052786121
 C         -2.3757027639       -0.1704699971       -0.9040862576
 C         -2.1535529561        0.7625088960       -2.0620020547
 C         -3.6067950173       -0.8037130821       -0.8199072388
 H         -5.2640585042       -3.0966966423        1.0742398413
 H         -5.4702237399       -2.8581658471       -0.6663162802
 H         -6.0144446678       -1.6196640689        0.4594417727
 H         -3.1092578177       -2.6510202107        1.9406709783
 H         -0.9896879926       -2.4650772501        2.7668317313
 H          0.3027054766       -1.9372515219        1.6792446546
 H         -0.4700623942       -0.7794832406        2.7532185507
 H         -1.8510351448        2.0541588330        1.0623039339
 H         -1.8518641728        4.5120640310        1.1014115219
 H         -0.0142689280        5.7661705956        0.0337192458
 H          1.8324714627        4.5454338372       -1.0553270182
 H          1.8528884205        2.0869479047       -1.0564689700
 H          1.1243231724        1.0032046631        2.1778257619
 H          2.6712934017        1.7526556443        1.7909279207
 H          2.6129430075        0.4099659625        2.9310717598
 H          4.3789901686       -0.5789103623        1.5372726343
 H          6.0159466632       -1.7694878259        0.1078510395
 H          5.2002457494       -3.3149423847        0.3351966202
 H          5.4595707344       -2.6967461305       -1.2951341912
 H          3.0940374678       -2.7000831034       -1.9211591590
 H         -0.2926097506       -2.0392487538       -1.6365062824
 H          0.9910261931       -2.4820226415       -2.7706160631
 H          0.3934569706       -0.8216990438       -2.7029140130
 H         -2.8091281307        1.6301621296       -1.9731107691
 H         -2.3946851464        0.2591258176       -2.9990359743
 H         -1.1264784397        1.1131011481       -2.1068554221
 H         -4.3574161520       -0.5945532986       -1.5704335556
