  96
  -158.262961518900       0.295667310914981      !
 C          7.3152218936       -4.7090701495       -0.5173736242
 C          7.9896046249       -3.5026804185       -0.4088682180
 C          7.2843214479       -2.3222844115       -0.2830029497
 C          5.8898582541       -2.3391282293       -0.2651407420
 C          5.1424983476       -1.0937547114       -0.1290879836
 N          5.8361335263        0.0517262228        0.0070905175
 C          5.1200377838        1.1842019920        0.1379627304
 C          5.8440931255        2.4437782515        0.2695396487
 C          7.2386722921        2.4526408982        0.2882967891
 C          7.9222520406        3.6462800704        0.4085664123
 C          7.2261267196        4.8408143747        0.5103214735
 C          5.8390902109        4.8383000121        0.4919993609
 C          5.1490507851        3.6491760732        0.3727194193
 N          3.8133359690        1.1989014027        0.1509482968
 C          3.1471625078        0.0262097830        0.0052831536
 C          1.7321983323        0.0116594599        0.0054555612
 C          0.9954572697        1.1945827352        0.2283470393
 C         -0.3789064593        1.1796252386        0.2324982788
 N         -1.0907418029        2.3738294910        0.4590779890
 C         -2.1572818997        2.5355781001        1.3223247000
 C         -2.5747050788        1.7153361107        2.3603338102
 C         -3.6899873192        2.1021752289        3.0768828717
 C         -4.3627604487        3.2892834015        2.7923996487
 C         -3.9165101447        4.1403508033        1.8011817157
 C         -2.8009985346        3.7667016160        1.0637543733
 C         -2.0591295836        4.3900733830        0.0061432662
 N         -2.2390616816        5.5492235457       -0.6026571801
 C         -1.3941789090        5.8665820803       -1.5631587017
 C         -0.3433280628        5.0473528346       -1.9760360117
 C         -0.1297306212        3.8302493823       -1.3513594775
 C         -1.0034729592        3.4955360646       -0.3282693721
 C         -1.0904545755       -0.0190784967       -0.0024195873
 N         -2.4945355207       -0.0270052280       -0.0292437008
 C         -3.2867673661        0.7639132669       -0.8395018269
 C         -2.9109987974        1.6252407749       -1.8607299693
 C         -3.9084054047        2.3133369755       -2.5221757154
 C         -5.2527624676        2.1358051308       -2.1984842180
 C         -5.6368582270        1.2412912902       -1.2200565410
 C         -4.6491623737        0.5436007455       -0.5373350382
 C         -4.6740953316       -0.4546567223        0.4903289399
 N         -5.6935946546       -1.0244391402        1.1093788665
 C         -5.4165386003       -1.9157432375        2.0389472298
 C         -4.1201873800       -2.2576158119        2.4247812040
 C         -3.0359976912       -1.6730301628        1.7949970629
 C         -3.3174369524       -0.7717493255        0.7799003736
 C         -0.3534246011       -1.2039953126       -0.2193914109
 N         -1.0393255653       -2.4168116473       -0.4331646264
 C         -0.9187846333       -3.5403851539        0.3632607443
 C         -0.0320201263       -3.7900628347        1.4016663602
 C         -0.1394929466       -4.9988312105        2.0617188759
 C         -1.1066251759       -5.9399384579        1.7099193854
 C         -2.0000372614       -5.6931274132        0.6874684684
 C         -1.9095430721       -4.4845685895        0.0085052901
 C         -2.6584260007       -3.8958352566       -1.0632559309
 N         -3.6883366587       -4.3623556097       -1.7488524244
 C         -4.1744211511       -3.5968947094       -2.7048067658
 C         -3.6427019498       -2.3543286159       -3.0498784358
 C         -2.5558098912       -1.8511365227       -2.3569476022
 C         -2.0746178693       -2.6221103107       -1.3102127020
 C          1.0203617564       -1.1884826272       -0.2144720776
 N          3.8365250363       -1.1326564883       -0.1432054849
 C          5.2166314265       -3.5563320686       -0.3744194204
 C          5.9283388678       -4.7320068908       -0.4996373634
 H          7.8689868663       -5.6310827235       -0.6155476806
 H          9.0695224825       -3.4856886425       -0.4229550385
 H          7.7938569103       -1.3750314701       -0.1978032164
 H          7.7655272439        1.5143653576        0.2087316115
 H          9.0023079569        3.6489279196        0.4236647846
 H          7.7629940582        5.7732383069        0.6038488513
 H          5.2971592730        5.7695399740        0.5708993447
 H          4.0701707278        3.6315206911        0.3563501411
 H          1.5311032427        2.1079439842        0.4294282161
 H         -2.0400476885        0.8119889862        2.6093856492
 H         -4.0458948234        1.4717771961        3.8781801389
 H         -5.2357438693        3.5502624866        3.3707974028
 H         -4.4109620615        5.0758650230        1.5944828434
 H         -1.5606726154        6.8261861664       -2.0325399575
 H          0.3042373427        5.3706975243       -2.7758580163
 H          0.6785100277        3.1774836159       -1.6473496814
 H         -1.8756295042        1.7491945271       -2.1406511463
 H         -3.6404469558        3.0014974565       -3.3101462392
 H         -6.0009500336        2.6988553916       -2.7351990119
 H         -6.6752409633        1.0758488824       -0.9817637825
 H         -6.2713175590       -2.3783176776        2.5123085483
 H         -3.9675379228       -2.9789539773        3.2119742580
 H         -2.0257040685       -1.9127343473        2.0918809928
 H          0.7132642301       -3.0634808201        1.6870760547
 H          0.5407562825       -5.2191325399        2.8710262664
 H         -1.1554667848       -6.8718084474        2.2525838919
 H         -2.7580452798       -6.4090156674        0.4126457083
 H         -5.0226764690       -4.0002439218       -3.2400069526
 H         -4.0746499138       -1.7946811322       -3.8643747171
 H         -2.1036878279       -0.9105132972       -2.6320359785
 H          1.5756621473       -2.0915533807       -0.4078397629
 H          4.1376420644       -3.5585591463       -0.3577266307
 H          5.4033500752       -5.6724389767       -0.5836508456
  96
  -158.262857519800       0.264855279436673      !
 C          7.2925119952       -4.6296205337       -1.0558079274
 C          5.9062304859       -4.6551236919       -1.0131575131
 C          5.1992841760       -3.5018082414       -0.7401904105
 C          5.8767048061       -2.3048160973       -0.5056046998
 C          5.1338166798       -1.0802410123       -0.2272607866
 N          5.8314732729        0.0466799913        0.0053740698
 C          5.1190991157        1.1642865175        0.2437430572
 C          5.8480020956        2.3993202929        0.5098962993
 C          5.1576623028        3.5853330738        0.7622607406
 C          5.8525798149        4.7491464349        1.0209332071
 C          7.2397667339        4.7454290212        1.0314598849
 C          7.9312132507        3.5701601959        0.7810721781
 C          7.2427593396        2.4018743420        0.5211236847
 N          3.8124630639        1.1834891673        0.2505978979
 C          3.1420799417        0.0276014989        0.0189802247
 C          1.7271819137        0.0149848997        0.0205571528
 C          0.9892740495        1.2002224919        0.2275041718
 C         -0.3851378136        1.1863436428        0.2189612630
 N         -1.0968373986        2.3887164079        0.4005930306
 C         -2.1721543453        2.5836818765        1.2458783512
 C         -2.5979903489        1.8064537847        2.3131410920
 C         -3.7215137424        2.2198946589        3.0014654026
 C         -4.3946536158        3.3917704601        2.6602252729
 C         -3.9413493635        4.2011474421        1.6378667914
 C         -2.8172653040        3.8002897228        0.9283051322
 C         -2.0692922449        4.3787062064       -0.1503147757
 N         -2.2492138647        5.5076291587       -0.8137259271
 C         -1.3999935198        5.7823264266       -1.7834020214
 C         -0.3436681123        4.9486588553       -2.1514619164
 C         -0.1291061567        3.7636711526       -1.4684252349
 C         -1.0082574460        3.4741387237       -0.4361655911
 C         -1.0961001856       -0.0167998573        0.0062483645
 N         -2.5004138875       -0.0259313341       -0.0231486032
 C         -3.2903530553        0.7469643817       -0.8526305372
 C         -2.9125559348        1.5690390311       -1.9050080709
 C         -3.9070310906        2.2482075499       -2.5798966500
 C         -5.2504951139        2.0994096229       -2.2383042551
 C         -5.6372974584        1.2425897288       -1.2277612045
 C         -4.6525162813        0.5541335910       -0.5314879589
 C         -4.6800335640       -0.4076934329        0.5303663542
 N         -5.7004743325       -0.9406793315        1.1799416133
 C         -5.4255038981       -1.8013852704        2.1386281177
 C         -4.1298528154       -2.1490601111        2.5216871238
 C         -3.0444508103       -1.6042387370        1.8588985757
 C         -3.3246244197       -0.7330861948        0.8175460442
 C         -0.3582480819       -1.2051523837       -0.1840269780
 N         -1.0401060222       -2.4260352867       -0.3599615771
 C         -0.9037627898       -3.5251000324        0.4672355116
 C         -0.0188088699       -3.7289808944        1.5171046725
 C         -0.1060074740       -4.9218139368        2.2083080379
 C         -1.0512324041       -5.8915480867        1.8750595421
 C         -1.9433930432       -5.6897242311        0.8416577807
 C         -1.8740082338       -4.4972686927        0.1321487948
 C         -2.6265787622       -3.9515174332       -0.9595557604
 N         -3.6404352748       -4.4574410814       -1.6412602663
 C         -4.1332941989       -3.7279798919       -2.6216063261
 C         -3.6261243452       -2.4828504516       -2.9934659883
 C         -2.5569531915       -1.9381318606       -2.3043845811
 C         -2.0666453436       -2.6727841823       -1.2360186795
 C          1.0155043208       -1.1875850687       -0.1856518226
 N          3.8279130710       -1.1187239651       -0.2199278587
 C          7.2704756483       -2.2855734606       -0.5481003834
 C          7.9710165640       -3.4434924958       -0.8224396574
 H          7.8423883424       -5.5338680343       -1.2712006054
 H          5.3779295985       -5.5798773766       -1.1949077190
 H          4.1206862795       -3.5059977623       -0.7048921322
 H          4.0786976066        3.5721960179        0.7523919561
 H          5.3144320146        5.6652587626        1.2167046623
 H          7.7802535172        5.6576812871        1.2360444538
 H          9.0112665098        3.5677905555        0.7903882213
 H          7.7656923390        1.4786997917        0.3251659338
 H          1.5234876958        2.1176018721        0.4137035285
 H         -2.0641378156        0.9151335188        2.6040625554
 H         -4.0843671676        1.6228501050        3.8248574380
 H         -5.2742891932        3.6740270519        3.2182207274
 H         -4.4369100036        5.1249270875        1.3858516054
 H         -1.5671897667        6.7177106113       -2.2990627824
 H          0.3063988258        5.2360638898       -2.9628633342
 H          0.6829097727        3.1001793686       -1.7278478179
 H         -1.8778405149        1.6701823228       -2.1967209035
 H         -3.6376466356        2.9066475080       -3.3923776259
 H         -5.9960983594        2.6552520693       -2.7860476010
 H         -6.6755159718        1.0995227323       -0.9744545914
 H         -6.2814256739       -2.2330864879        2.6384646720
 H         -3.9788538751       -2.8440427692        3.3325859527
 H         -2.0342909144       -1.8502421380        2.1510147337
 H          0.7102622542       -2.9801209092        1.7866704682
 H          0.5733426131       -5.1067494187        3.0271561250
 H         -1.0837758703       -6.8103512375        2.4407903574
 H         -2.6844633550       -6.4285407563        0.5815197062
 H         -4.9670647132       -4.1639726147       -3.1539080700
 H         -4.0630323755       -1.9536644170       -3.8254837588
 H         -2.1245325449       -0.9940736480       -2.5984696057
 H          1.5707389082       -2.0940702808       -0.3626039201
 H          7.7834193681       -1.3539969739       -0.3657386018
 H          9.0503709636       -3.4243864796       -0.8558836349
  96
  -158.262697983300       0.223712749394423      !
 C          7.3159610143       -4.6583226152       -0.8715830430
 C          7.9896782554       -3.4680279910       -0.6451885181
 C          7.2835920036       -2.3018433510       -0.4258701995
 C          5.8889810670       -2.3169556725       -0.4315202810
 C          5.1409298945       -1.0851740940       -0.2053164045
 N          5.8343254836        0.0491340313        0.0053417065
 C          5.1179172869        1.1710131289        0.2065294579
 C          5.8417611717        2.4155401908        0.4415133396
 C          5.1465764672        3.6015440813        0.6800126882
 C          5.8366175571        4.7744812580        0.9089806498
 C          7.2237823740        4.7800904740        0.9024000343
 C          7.9200154595        3.6051819682        0.6642509572
 C          7.2364319372        2.4276252946        0.4348611296
 N          3.8111882474        1.1872018898        0.2044003561
 C          3.1449545399        0.0247084580       -0.0076757349
 C          1.7300737338        0.0105587807       -0.0107518566
 C          0.9931812164        1.1955997607        0.2008417304
 C         -0.3810628166        1.1811267113        0.2018051795
 N         -1.0926236183        2.3803817528        0.4027771950
 C         -2.1554765117        2.5641706013        1.2659277348
 C         -2.5663275294        1.7722861579        2.3282745109
 C         -3.6773413237        2.1784575180        3.0407815489
 C         -4.3525731380        3.3569828230        2.7277279125
 C         -3.9140144379        4.1797753019        1.7095946546
 C         -2.8027685707        3.7864444158        0.9759604045
 C         -2.0687617007        4.3799810961       -0.1040548167
 N         -2.2557882801        5.5194243774       -0.7470410472
 C         -1.4179499134        5.8090383241       -1.7224397743
 C         -0.3667054150        4.9808622504       -2.1159778237
 C         -0.1453274086        3.7844526780       -1.4550970699
 C         -1.0127493955        3.4784928778       -0.4178246672
 C         -1.0929758512       -0.0209814204       -0.0131757794
 N         -2.4973793148       -0.0284749753       -0.0344032670
 C         -3.2905251986        0.7511311293       -0.8545988925
 C         -2.9168309002        1.5821173332       -1.9013873985
 C         -3.9140816984        2.2651748230       -2.5682904998
 C         -5.2563670767        2.1118285702       -2.2242738430
 C         -5.6391186184        1.2470084652       -1.2189586440
 C         -4.6515012057        0.5546503904       -0.5306452164
 C         -4.6749331166       -0.4160355936        0.5231865860
 N         -5.6929558987       -0.9548101919        1.1717784306
 C         -5.4144022464       -1.8235435478        2.1220925874
 C         -4.1173430153       -2.1740102940        2.4977042440
 C         -3.0344698188       -1.6226811078        1.8362760463
 C         -3.3184409112       -0.7429310042        0.8032094846
 C         -0.3561895853       -1.2084653065       -0.2142755478
 N         -1.0408632912       -2.4272100437       -0.3955470859
 C         -0.9076629231       -3.5306814776        0.4265830105
 C         -0.0153323810       -3.7475289344        1.4675750031
 C         -0.1098596065       -4.9410156124        2.1567155315
 C         -1.0693571646       -5.8989904386        1.8304030415
 C         -1.9683409125       -5.6845647236        0.8055364237
 C         -1.8913432277       -4.4914620929        0.0979915929
 C         -2.6493100504       -3.9342378900       -0.9841563094
 N         -3.6767717177       -4.4264577528       -1.6553996979
 C         -4.1736987120       -3.6876498876       -2.6266154072
 C         -3.6569434718       -2.4470136177       -3.0001748945
 C         -2.5732420310       -1.9170425101       -2.3223336946
 C         -2.0787614041       -2.6607155213       -1.2621032445
 C          1.0176823622       -1.1913649411       -0.2191331394
 N          3.8349336594       -1.1245993346       -0.2160856423
 C          5.2164594866       -3.5181454489       -0.6585241953
 C          5.9289584599       -4.6796177656       -0.8771504613
 H          7.8704159950       -5.5689319341       -1.0443852346
 H          9.0696990757       -3.4524192442       -0.6406155853
 H          7.7926360798       -1.3671944077       -0.2483873955
 H          4.0676663247        3.5811424086        0.6846852435
 H          5.2946841190        5.6902099058        1.0956816603
 H          7.7607146356        5.6994313552        1.0840629248
 H          9.0002222287        3.6103238111        0.6596979064
 H          7.7634782573        1.5045302896        0.2495495246
 H          1.5284588796        2.1120808273        0.3882378938
 H         -2.0296958317        0.8760877408        2.5982961551
 H         -4.0278216343        1.5706560295        3.8616868755
 H         -5.2217747086        3.6336894010        3.3045309070
 H         -4.4109418992        5.1084675545        1.4792796797
 H         -1.5907315029        6.7528783209       -2.2206874855
 H          0.2752245086        5.2813793299       -2.9290894600
 H          0.6638919985        3.1255996280       -1.7345096398
 H         -1.8832068044        1.6868375237       -2.1955739572
 H         -3.6476579899        2.9305494420       -3.3760912348
 H         -6.0043818815        2.6702618982       -2.7660523913
 H         -6.6764682206        1.1004135872       -0.9641881283
 H         -6.2684883038       -2.2601087226        2.6208494912
 H         -3.9631657267       -2.8762390096        3.3017001719
 H         -2.0232992554       -1.8702001840        2.1235728757
 H          0.7246260520       -3.0078629520        1.7325507731
 H          0.5747380682       -5.1356439155        2.9689041867
 H         -1.1079099270       -6.8181366480        2.3951580751
 H         -2.7206105381       -6.4137144474        0.5504734539
 H         -5.0190343113       -4.1119633431       -3.1500960842
 H         -4.0980439927       -1.9099084401       -3.8248958528
 H         -2.1332797412       -0.9771873143       -2.6187230939
 H          1.5724026679       -2.0971375427       -0.4012785762
 H          4.1373562472       -3.5190601730       -0.6605960594
 H          5.4045120457       -5.6075226082       -1.0531963184
  96
  -158.262583339000       0.198154465091394      !
 C          7.3369378339       -4.6130474965       -1.0527023435
 C          8.0068618151       -3.4248601483       -0.8049652646
 C          7.2973937673       -2.2717977155       -0.5338785633
 C          5.9031567233       -2.2978141080       -0.5085322833
 C          5.1518880455       -1.0780358643       -0.2328545128
 N          5.8431878733        0.0528329045        0.0019375873
 C          5.1249834958        1.1669130869        0.2361428655
 C          5.8471336092        2.4065540866        0.5015014216
 C          7.2416407554        2.4140979152        0.5265402388
 C          7.9235700896        3.5863189988        0.7861065754
 C          7.2257456830        4.7607745486        1.0219855734
 C          5.8388148685        4.7596992343        0.9971755609
 C          5.1504703953        3.5917647630        0.7392270778
 N          3.8183289761        1.1798180495        0.2399541125
 C          3.1542608763        0.0194623097        0.0089595252
 C          1.7392279026        0.0031545157        0.0116490152
 C          1.0028746993        1.1892259960        0.2205024397
 C         -0.3712281466        1.1765957002        0.2142335520
 N         -1.0844933935        2.3768865374        0.4038757450
 C         -2.1624223719        2.5577523435        1.2492307967
 C         -2.5794986638        1.7720623998        2.3137138856
 C         -3.7084532628        2.1696319998        3.0024323066
 C         -4.3951141637        3.3345000940        2.6643363251
 C         -3.9500123353        4.1532169146        1.6457221198
 C         -2.8204225326        3.7683603686        0.9360525735
 C         -2.0766763147        4.3596613680       -0.1386249278
 N         -2.2675324128        5.4898962383       -0.7963297920
 C         -1.4189901438        5.7794464819       -1.7624697604
 C         -0.3521905172        4.9599386396       -2.1314383636
 C         -0.1265034861        3.7732444464       -1.4546623147
 C         -1.0055066038        3.4674658658       -0.4272110305
 C         -1.0832631994       -0.0256720480       -0.0001398711
 N         -2.4874813672       -0.0293653418       -0.0355753229
 C         -3.2684196560        0.7434733907       -0.8737121330
 C         -2.8794032419        1.5631716732       -1.9238312819
 C         -3.8665095145        2.2414512855       -2.6104289571
 C         -5.2133812677        2.0942460898       -2.2822377353
 C         -5.6109697458        1.2398828297       -1.2737300726
 C         -4.6338455893        0.5524687517       -0.5657738333
 C         -4.6728345210       -0.4082298939        0.4967451673
 N         -5.7002809220       -0.9400959143        1.1360399422
 C         -5.4356146482       -1.8008740995        2.0974969441
 C         -4.1442722072       -2.1488288260        2.4944110634
 C         -3.0518745002       -1.6044663871        1.8431403930
 C         -3.3207154717       -0.7343294084        0.7979674344
 C         -0.3472916897       -1.2156001351       -0.1902475596
 N         -1.0349254868       -2.4342890669       -0.3627738847
 C         -0.9188880685       -3.5251909450        0.4789331741
 C         -0.0286018104       -3.7385822409        1.5222682756
 C         -0.1419756984       -4.9178497780        2.2326187186
 C         -1.1179446682       -5.8651903958        1.9250141872
 C         -2.0149796866       -5.6539794682        0.8977623436
 C         -1.9190867684       -4.4752035393        0.1690249880
 C         -2.6708694561       -3.9241778893       -0.9206248072
 N         -3.7107799589       -4.4085288226       -1.5782121943
 C         -4.1991997029       -3.6769603163       -2.5591997772
 C         -3.6602256464       -2.4536886828       -2.9578738018
 C         -2.5628650098       -1.9331063034       -2.2951760844
 C         -2.0787744567       -2.6662437653       -1.2229140389
 C          1.0265908403       -1.1995693304       -0.1921066725
 N          3.8459377623       -1.1229486430       -0.2288927617
 C          5.2345434084       -3.4967376039       -0.7575570646
 C          5.9503852759       -4.6452326569       -1.0276016415
 H          7.8939261783       -5.5134848315       -1.2655038947
 H          9.0864809852       -3.4005220513       -0.8249134271
 H          7.8034287250       -1.3385773286       -0.3407132888
 H          7.7696292470        1.4913817404        0.3424543629
 H          9.0035327246        3.5876566614        0.8065446237
 H          7.7612125983        5.6763179951        1.2256317731
 H          5.2955964949        5.6751330572        1.1814446454
 H          4.0716372299        3.5750312681        0.7188141063
 H          1.5387795671        2.1054170080        0.4075571943
 H         -2.0347883724        0.8864942494        2.6019922870
 H         -4.0648877120        1.5653224992        3.8233739835
 H         -5.2789128300        3.6040248069        3.2220590119
 H         -4.4563498095        5.0718835978        1.3965232287
 H         -1.5954503457        6.7159462087       -2.2730110145
 H          0.2980550549        5.2595657256       -2.9382580284
 H          0.6940139665        3.1209813189       -1.7158501233
 H         -1.8418018781        1.6625948745       -2.2056680182
 H         -3.5882872740        2.8977122105       -3.4217144888
 H         -5.9531157921        2.6489972258       -2.8389760697
 H         -6.6518762394        1.0977246512       -1.0311255740
 H         -6.2968901899       -2.2322528321        2.5882968364
 H         -4.0019032443       -2.8439362796        3.3067460215
 H         -2.0449056161       -1.8502810868        2.1463942283
 H          0.7236371153       -3.0065596139        1.7735728519
 H          0.5408255242       -5.1096157308        3.0469526135
 H         -1.1708730748       -6.7733494372        2.5060651267
 H         -2.7799184346       -6.3746625541        0.6567514481
 H         -5.0559010353       -4.0934953726       -3.0701984268
 H         -4.0951353798       -1.9227780418       -3.7897980610
 H         -2.1056882697       -1.0076987341       -2.6104211104
 H          1.5810828334       -2.1067456112       -0.3680040131
 H          4.1556736534       -3.5058985299       -0.7362938626
 H          5.4288646669       -5.5713958561       -1.2206915033
  96
  -158.260295888000       1.761019516252761E-002 !
 C          7.3339794902       -4.5473205692       -1.3108832474
 C          8.0029061697       -3.3704219316       -1.0118516857
 C          7.2930636202       -2.2363483833       -0.6705258313
 C          5.8993717140       -2.2701226377       -0.6261407456
 C          5.1476599365       -1.0678742682       -0.2832850810
 N          5.8383926786        0.0528095268       -0.0024905402
 C          5.1199255294        1.1549704126        0.2822963168
 C          5.8406472089        2.3795727295        0.6123425405
 C          7.2352752471        2.3898735813        0.6299659164
 C          7.9152260479        3.5460534485        0.9577024369
 C          7.2154152837        4.7013540944        1.2698919699
 C          5.8283905099        4.6975623793        1.2524186537
 C          5.1419294224        3.5457399076        0.9263191826
 N          3.8131879819        1.1677576499        0.2825660564
 C          3.1497589824        0.0159789248        0.0111338669
 C          1.7346018560       -0.0005142141        0.0151752951
 C          0.9987295834        1.1869084886        0.2173426014
 C         -0.3754371348        1.1761397345        0.2060466406
 N         -1.0858208803        2.3812663915        0.3743815959
 C         -2.1669435179        2.5820844202        1.2109662922
 C         -2.5946129244        1.8164325359        2.2858033052
 C         -3.7240677740        2.2328018020        2.9625560945
 C         -4.4011223524        3.3967384291        2.6025659210
 C         -3.9458098455        4.1956777860        1.5728355642
 C         -2.8156365612        3.7916634261        0.8748628790
 C         -2.0634717290        4.3605257857       -0.2059848720
 N         -2.2444406723        5.4807599941       -0.8833509509
 C         -1.3899306877        5.7488379358       -1.8503849890
 C         -0.3268470961        4.9166510620       -2.2010491378
 C         -0.1113408198        3.7402277568       -1.5032787121
 C         -0.9965301801        3.4573576044       -0.4745437132
 C         -1.0882459869       -0.0276058153        0.0035764344
 N         -2.4925284019       -0.0308139156       -0.0340539473
 C         -3.2704879226        0.7325819320       -0.8835263017
 C         -2.8779152932        1.5349839356       -1.9455819636
 C         -3.8622170291        2.2069754946       -2.6423396925
 C         -5.2097375446        2.0699961802       -2.3122210936
 C         -5.6109008894        1.2325802711       -1.2909721311
 C         -4.6366283188        0.5518112884       -0.5727605579
 C         -4.6792963851       -0.3927720936        0.5039557163
 N         -5.7088261376       -0.9104397136        1.1516217735
 C         -5.4475929116       -1.7578116573        2.1259542091
 C         -4.1575395318       -2.1060904050        2.5269864019
 C         -3.0629910552       -1.5764648656        1.8671426346
 C         -3.3284059500       -0.7200717668        0.8098377235
 C         -0.3527363456       -1.2195264463       -0.1738415665
 N         -1.0390363941       -2.4417386928       -0.3251158775
 C         -0.9157229469       -3.5170735473        0.5351989696
 C         -0.0271677372       -3.7035733704        1.5852248427
 C         -0.1328212514       -4.8706892917        2.3166294643
 C         -1.0993247354       -5.8320607473        2.0225488574
 C         -1.9942976333       -5.6474880446        0.9883680409
 C         -1.9064288839       -4.4810754555        0.2388144241
 C         -2.6594738754       -3.9552693433       -0.8623491817
 N         -3.6915531295       -4.4613475159       -1.5159940691
 C         -4.1836674948       -3.7510512853       -2.5106584516
 C         -3.6577833704       -2.5274258795       -2.9253533237
 C         -2.5689715150       -1.9840241338       -2.2667148791
 C         -2.0789632651       -2.6963794522       -1.1831985325
 C          1.0212081950       -1.2038446923       -0.1807304736
 N          3.8418808111       -1.1165323218       -0.2693012534
 C          5.2317889622       -3.4578912999       -0.9264795287
 C          5.9481443514       -4.5874767657       -1.2662212592
 H          7.8912476198       -5.4326810792       -1.5794587989
 H          9.0820505417       -3.3398286737       -1.0472397056
 H          7.7982430479       -1.3119567449       -0.4370908838
 H          7.7649060531        1.4817969390        0.3869022019
 H          8.9952350598        3.5495885816        0.9724372000
 H          7.7493956973        5.6040713633        1.5274959797
 H          5.2836085087        5.5979935133        1.4963718873
 H          4.0630835069        3.5263280900        0.9122478489
 H          1.5349202227        2.1043959227        0.3971852620
 H         -2.0575579339        0.9318547892        2.5910502745
 H         -4.0883471531        1.6444370614        3.7915721986
 H         -5.2854151123        3.6814754005        3.1518764134
 H         -4.4445627212        5.1136288400        1.3063197551
 H         -1.5580735787        6.6779501307       -2.3771075241
 H          0.3284440186        5.1984030159       -3.0102553187
 H          0.7061767642        3.0785975041       -1.7499195564
 H         -1.8397609757        1.6261397741       -2.2282731586
 H         -3.5813285401        2.8500014065       -3.4632248710
 H         -5.9471726576        2.6191670020       -2.8774548489
 H         -6.6523446978        1.0985365081       -1.0462384710
 H         -6.3105429662       -2.1777477419        2.6236150213
 H         -4.0178618624       -2.7900496189        3.3491686728
 H         -2.0570329379       -1.8228127506        2.1731706660
 H          0.7178186136       -2.9604259268        1.8251915213
 H          0.5480648288       -5.0412724924        3.1373190636
 H         -1.1467398008       -6.7297803261        2.6201659320
 H         -2.7520426666       -6.3792183870        0.7581062172
 H         -5.0329181690       -4.1856714358       -3.0190044663
 H         -4.0962597041       -2.0140016953       -3.7663735708
 H         -2.1227062252       -1.0572356267       -2.5933835889
 H          1.5745754386       -2.1131946251       -0.3489258737
 H          4.1534245347       -3.4731020194       -0.8902894568
 H          5.4275233709       -5.5048896043       -1.4994255209
