52
 energy: -79.324303456452 gnorm: 0.000032186388 xtb: 6.7.1 (edcfbbe)
O           -2.48876109458733       -1.26217699156422        2.51518097874835
C           -2.83970072171658        0.05237847927714        2.11735826606802
C           -3.58930157881758        0.07817498287921        0.80680186188067
C           -4.97754140537477        0.09503835646811        0.79156719549210
C           -5.67464556728357        0.08630444553011       -0.40404994531862
C           -4.98477459968411        0.05859970242051       -1.60451529317223
C           -3.60178056893280        0.03710898799193       -1.60318184039191
C           -2.89490335707796        0.04357354654456       -0.40559062268173
C           -1.41126209629535        0.01748745070565       -0.43085783294993
C           -0.69455326435266        1.22040806303471       -0.47318680461402
C           -1.35093385134840        2.47937901078304       -0.49960041529353
C           -0.64395956816196        3.64173658934286       -0.54036921112172
C            0.76600001205423        3.61786945808725       -0.56052522595930
C            1.43428833794204        2.43215979068580       -0.53073307934758
C            0.73508531430543        1.19491650331092       -0.48059092580440
C            1.41101004169716       -0.03172881353731       -0.43103368916992
C            2.89477594238887       -0.05753430304281       -0.40628788841205
C            3.60047562836318       -0.09950492232918       -1.60382394033622
C            4.98343888763186       -0.12391934124286       -1.60554892983611
C            5.67437403372580       -0.10534280650738       -0.40557368859115
C            4.97844680254229       -0.06481085382126        0.79013746552532
C            3.59031538293975       -0.04508373156394        0.80600932958441
C            2.84083924562939        0.03320097597351        2.11448313658644
O            2.45928268084813        1.35832088180799        2.44262055709419
C            0.69415355561709       -1.23512023107138       -0.40776893589135
C            1.35048255211508       -2.49379901323051       -0.36795334237313
C            0.64338503331212       -3.65658622470765       -0.34603972702654
C           -0.76658079436262       -3.63368605389685       -0.36711287952787
C           -1.43478286497174       -2.44794572201642       -0.40004916097655
C           -0.73540957614910       -1.20996504952698       -0.41531576183269
H           -1.95520842297813       -1.65900276487133        1.81320948453147
H           -1.93641504616398        0.67648546486340        2.05047078577687
H           -3.47016510332398        0.43645365614900        2.92299361750134
H           -5.51305304960749        0.11476535538616        1.72976756507752
H           -6.75455528469300        0.10120198314979       -0.39837991975112
H           -5.52263277615260        0.05288694286433       -2.54118917889591
H           -3.05502341678172        0.01441644697627       -2.53517682188913
H           -2.43089154274718        2.49356841866699       -0.48784608549591
H           -1.15674147141815        4.59205543443941       -0.56094772927516
H            1.31112108142014        4.54941780298735       -0.59982080009119
H            2.51469573933370        2.41336168722904       -0.55464485289586
H            3.05282762783004       -0.11286911712736       -2.53546880395792
H            5.52039646482584       -0.15643125161309       -2.54218744818098
H            6.75425151996968       -0.12231362520498       -0.40022970086547
H            5.51522954471368       -0.04822283814417        1.72768440611928
H            3.47998330609169       -0.29310924632549        2.93844069824692
H            1.95223301413911       -0.61449396241688        2.08200717914910
H            1.92055851408585        1.70620744818701        1.71900678233979
H            2.43047674598704       -2.50756766760355       -0.35619996981014
H            1.15605649981146       -4.60672046128853       -0.31616494582326
H           -1.31175121560166       -4.56599737427908       -0.35707096569211
H           -2.51525105727836       -2.43032907009943       -0.42649857307115
