52
 energy: -79.322086062398 gnorm: 0.000040916830 xtb: 6.7.1 (edcfbbe)
O           -2.38578554853945       -1.24002056418661        2.43229164054985
C           -2.83465396537706        0.06439795608892        2.10609100567919
C           -3.60696092323470        0.10754029074367        0.80960458845392
C           -4.99510541521376        0.12130960474787        0.81479761610295
C           -5.70922040528320        0.13568158552613       -0.37086255800093
C           -5.03666034461113        0.13318623434929       -1.58129691464254
C           -3.65367818451417        0.11389511616973       -1.60020791575715
C           -2.92956992880040        0.09898045875559       -0.41324477986889
C           -1.44604270127360        0.07777829362198       -0.45860978278060
C           -0.73128621962505        1.28265742802623       -0.43775987998285
C           -1.39038472944346        2.53971687831848       -0.38737090691072
C           -0.68464254089058        3.70303344835941       -0.35902968428940
C            0.72562661753015        3.68187600845518       -0.37845729233982
C            1.39503917902287        2.49784631826193       -0.42675446284249
C            0.69802596427455        1.26084442951029       -0.45909359567491
C            1.37636899640723        0.03579759037245       -0.50131099908595
C            2.85915911439295        0.01184240125585       -0.50783191585891
C            3.54705511041977        0.06641821054841       -1.71350172826350
C            4.93097353812362        0.04232848631444       -1.73758920926379
C            5.63774165001172       -0.03598892736166       -0.55045455841969
C            4.96023835636934       -0.09071479432456        0.65605859042902
C            3.57486509786603       -0.06751108767413        0.69000932149462
C            2.82233472461189       -0.13021031798517        1.99515388702240
O            3.71318740318678       -0.15693909935507        3.09032939112218
C            0.66151666281665       -1.16792567316981       -0.54056760840110
C            1.32034443242876       -2.42499864866198       -0.59277019811620
C            0.61647044508897       -3.58945740995184       -0.62598004702398
C           -0.79377811478840       -3.56980618858491       -0.61388312562048
C           -1.46460789819873       -2.38636770030551       -0.56412027971090
C           -0.76811907993541       -1.14703991975506       -0.52233754555034
H           -1.86538037046026       -1.57451787316195        1.68916201787309
H           -1.97694247008619        0.75179457199995        2.05542274007715
H           -3.47436166893694        0.36458439040183        2.93951345369413
H           -5.51814789880320        0.12111818668691        1.76029882450014
H           -6.78896707242598        0.14860233598010       -0.34959787294269
H           -5.58793132868425        0.14531712498190       -2.51009281110396
H           -3.11996246111695        0.11103533156687       -2.53995165169154
H           -2.47056071119897        2.55209011855943       -0.37153599537748
H           -1.19871860918439        4.65243847544866       -0.32140118549168
H            1.26876331385599        4.61541200585321       -0.35416356300249
H            2.47500699877143        2.47688004916506       -0.44142609023971
H            2.98644992595619        0.12741781927842       -2.63563447930935
H            5.45395610041056        0.08493216101046       -2.68181683581029
H            6.71768783751143       -0.05506540028301       -0.56064436460837
H            5.50007246072644       -0.15132845378710        1.58816863190772
H            2.18790825850822       -1.03114030726195        1.99685532603005
H            2.15629851069995        0.74459198524646        2.06485714247059
H            3.19664789341667       -0.20499994790144        3.90219599249633
H            2.40040969032589       -2.43505336438399       -0.60663437820829
H            1.13143373730213       -4.53815387758348       -0.66490815832230
H           -1.33675496921610       -4.50295376937045       -0.64615626388898
H           -2.54536146019397       -2.37115297053666       -0.56380953149683
