  52
        -79.23161028
 O         -1.9375266566       -0.0660391917        2.4720729751
 C         -2.9048847282        0.8402439831        1.9857434016
 C         -3.6187340305        0.3459923704        0.7504100781
 C         -5.0041111434        0.3035497508        0.7069531263
 C         -5.6703724077       -0.1763402887       -0.4079390792
 C         -4.9470012112       -0.6411044710       -1.4936461824
 C         -3.5662614587       -0.6105252880       -1.4621385834
 C         -2.8849765913       -0.1053393342       -0.3555451360
 C         -1.4165024680       -0.0546047796       -0.3744031946
 C         -0.7605165766        1.2105053097       -0.4285625601
 C         -1.4819697602        2.4018648160       -0.5293713189
 C         -0.8357279067        3.6397054234       -0.5291663693
 C          0.5365792284        3.6988952525       -0.4265591224
 C          1.2829651847        2.5208065307       -0.3611493784
 C          0.6629979460        1.2706588336       -0.3955371542
 C          1.4167750482        0.0586437556       -0.3729367391
 C          2.8850503105        0.1098859019       -0.3535020220
 C          3.5649995372        0.6273557159       -1.4554623403
 C          4.9455748709        0.6602191901       -1.4879799878
 C          5.6704916988        0.1851656757       -0.4077216791
 C          5.0057462311       -0.3072331351        0.7025447312
 C          3.6204360975       -0.3519848544        0.7471109965
 C          2.9102658034       -0.8616591613        1.9785299782
 O          1.9329418749        0.0299916382        2.4710486936
 C          0.7606609056       -1.2062925373       -0.4346466720
 C          1.4817578957       -2.3971975606       -0.5422782714
 C          0.8351967900       -3.6349314373       -0.5480376351
 C         -0.5370941855       -3.6944318794       -0.4456244838
 C         -1.2832997676       -2.5165712143       -0.3749078104
 C         -0.6628856036       -1.2664048637       -0.4024284143
 H         -1.3842367555       -0.2887619365        1.7084393920
 H         -2.4228294868        1.8037366388        1.7671215655
 H         -3.6188166451        0.9840662104        2.7986242295
 H         -5.5675233151        0.6456525083        1.5627973126
 H         -6.7491195371       -0.1965264867       -0.4238708630
 H         -5.4568403785       -1.0252427799       -2.3640951415
 H         -2.9939670513       -0.9587995165       -2.3096132394
 H         -2.5556104526        2.3607641005       -0.6148667156
 H         -1.4204657099        4.5440634111       -0.6002372008
 H          1.0442719424        4.6507764258       -0.4023054173
 H          2.3559602485        2.5747869749       -0.2830948354
 H          2.9914243796        0.9834037286       -2.2988329907
 H          5.4540680657        1.0541000719       -2.3548326094
 H          6.7491711087        0.2070851757       -0.4242435180
 H          5.5705037583       -0.6572883711        1.5542680721
 H          3.6251611019       -1.0037486878        2.7909754258
 H          2.4390350750       -1.8290450104        1.7529603819
 H          1.3773565319        0.2526012782        1.7088747407
 H          2.5552916130       -2.3558830524       -0.6288095552
 H          1.4197346074       -4.5390400264       -0.6236705907
 H         -1.0449198330       -4.6463809112       -0.4263524822
 H         -2.3563570587       -2.5704847605       -0.2977305060
