145
 energy: -197.959841755646 gnorm: 0.000052973371 xtb: 6.7.1 (edcfbbe)
C           -2.19634890773515       -7.57225030184856       -1.58612163944739
C           -2.84850014132441       -6.44158344621461       -0.77513426706508
C           -4.01098424934318       -5.83489267800420       -1.57496538451281
C           -3.41789331565998       -7.04645674736457        0.51200429827400
C           -1.80007795603233       -5.37102116780823       -0.50968899248091
C           -1.20053330760597       -4.71775727539349       -1.58505306701612
C           -0.21464148432573       -3.76916146299431       -1.39719225775487
C            0.20029146299193       -3.44016080603680       -0.11381221188611
N            1.23721739584685       -2.47472691125747        0.06317794907732
C            2.53068020225550       -2.92066009195704        0.27706788957102
C            2.76092347366561       -4.28866360667614        0.45853907683770
C            4.01383446061984       -4.76785638876465        0.76748054562657
C            5.09663901038845       -3.90439790312278        0.92660307601144
C            6.48571622623479       -4.38019482376758        1.32761478527492
C            6.91034401999031       -3.66514994811464        2.61910757793860
C            7.47451665043606       -4.04644971170860        0.20111121390879
C            6.54200613675516       -5.89004082832062        1.58094814863389
C            4.86622110375668       -2.56005067068445        0.68786252092451
C            3.62477614379182       -2.02725199296078        0.32529362558302
B            3.36204846646521       -0.54336444267155       -0.01719502229089
C            4.33898426218252        0.61236218932249       -0.32961242827153
C            5.70536763151443        0.45702773110480       -0.60439809009905
C            6.57281095639439        1.51031609510615       -0.81915155888956
C            8.05472388725429        1.33407982411546       -1.11860856357077
C            8.48436550731282       -0.13574253893978       -1.13303981526730
C            8.87856128900205        2.05883639939693       -0.04333266416764
C            8.36135166791606        1.93614281307826       -2.49804006287651
C            6.03502634595356        2.79888269204349       -0.75066635239593
C            4.69515132930940        3.00443932539533       -0.53165818813247
C            3.82066858267062        1.92504842431969       -0.35181883271689
N            2.46797703626876        2.17585264263516       -0.21112108145734
C            2.02156834422673        3.52812363750933       -0.10691644443237
C            1.76661135911458        4.29007544427024       -1.23707792145701
C            1.29560608864831        5.58603826873564       -1.11202639034068
C            1.06384913122640        6.15429132538502        0.13583644401249
C            0.53322113386912        7.56821980238714        0.31635888097523
C           -0.78597990854829        7.50907312244658        1.10153661825123
C            1.56730630860684        8.39391878715618        1.09632399817350
C            0.26456120368446        8.27323181652817       -1.01667989476122
C            1.33470544070933        5.37586069086448        1.25960669767745
C            1.80575925864153        4.08250762650699        1.14722572407828
C            1.50545359259772        1.19323054178207       -0.16043930021946
C            0.15456476141815        1.54309674122231       -0.21890052506960
C           -0.81007348432724        0.55520598980147       -0.11256233977320
N           -2.19439453983260        0.86954759716735       -0.15202875692541
C           -2.80049185685139        1.65312153397183        0.81896006829088
C           -2.05372097477121        2.39282483882016        1.73746741291634
C           -2.67472078906255        3.24292405139088        2.63049743303190
C           -4.05197607636272        3.37467237388412        2.62575271157275
C           -4.80338091560734        2.59125696995497        1.76666099371490
C           -4.20082099415610        1.71382032781411        0.87942275709944
C           -5.01073397265696        0.69538649206211        0.09183191483551
C           -4.98515466604928       -0.56275525643718        0.96341673032328
C           -5.51308972984687       -0.51091627412649        2.25061167895380
C           -5.45833354191556       -1.60996586757466        3.08670108084360
C           -4.85721399940340       -2.78207652120635        2.65749564275955
C           -4.32754854464145       -2.84340078558733        1.38191091080711
C           -4.39613664994730       -1.74600136660800        0.53950522338927
C           -6.41935549773561        1.18990145782129       -0.17999578946392
C           -7.54780468023347        0.41854355580494        0.06169080212219
C           -8.81047285683914        0.90433371705201       -0.23782201656602
C           -8.96264945934996        2.16358305235453       -0.79012369077126
C           -7.84077803159887        2.93343174479811       -1.05294780603961
C           -6.58179527427150        2.44823358720900       -0.75412835151773
C           -4.31484145276487        0.43295797186294       -1.22787752096667
C           -5.01632997024938        0.07019065811805       -2.36678232979934
C           -4.35811580809654       -0.24831463630791       -3.54234963563523
C           -2.97494511448310       -0.20219593490171       -3.58344570646132
C           -2.25908738322485        0.16527685902727       -2.46186554326790
C           -2.91662760841284        0.48047027303754       -1.27108952083390
C           -0.45995941622676       -0.78121082294697       -0.00108815329419
C            0.88639830422445       -1.14555161010571        0.00101844674174
C            1.89373029331396       -0.15863089663997       -0.05768967551294
C           -0.40155849681181       -4.06133801905303        0.97004779208386
C           -1.38417831026862       -5.01641008079995        0.76932975035720
H           -1.83092859495353       -7.21287699448590       -2.54416775528683
H           -2.91935264157801       -8.36367831330745       -1.77193765354634
H           -1.35662115099313       -7.99417519309681       -1.03700127998326
H           -4.76395237972337       -6.59548635962607       -1.77080038658133
H           -4.47822320536661       -5.02685291983316       -1.01570051046199
H           -3.67499725291766       -5.43723881672726       -2.52854327912365
H           -2.63793755161002       -7.52617738836922        1.09907721514449
H           -4.15845473412827       -7.80230380155849        0.25820205916969
H           -3.90933319221110       -6.29010388846400        1.11972852158645
H           -1.49622516286727       -4.95419577048918       -2.59564473365204
H            0.24472384703408       -3.28108314804600       -2.24466943265310
H            1.94459941434062       -4.98997700246548        0.37027329889441
H            4.12860184731242       -5.83163873405686        0.90089575429689
H            7.89821060971170       -4.00197000573029        2.92789388480455
H            6.94494929430744       -2.58764051622672        2.48319387266630
H            6.20528564527354       -3.88371136916681        3.41917885436402
H            7.51939955108358       -2.97615414666057        0.02345653527037
H            7.16967636638668       -4.53248920929787       -0.72396200844184
H            8.47344783120453       -4.39198609937036        0.46040011222885
H            5.86005070691057       -6.17865156113762        2.37807887132394
H            6.29470980763199       -6.44861284892599        0.68072064440352
H            7.54978305290866       -6.17016161938003        1.88254160991841
H            5.68067257203826       -1.86418014701469        0.80695157009631
H            6.07242344625473       -0.55222938917914       -0.66925651906623
H            7.94442411313191       -0.69618899609525       -1.89295409538682
H            8.31898443046063       -0.59683965218694       -0.16194422288522
H            9.54730021837301       -0.20207288829282       -1.35822841700095
H            8.66756570432646        3.12477870386718       -0.03215264364797
H            9.94202700556082        1.92539203955194       -0.23257985058490
H            8.65020965116269        1.65627480886831        0.94192679498732
H            7.76876608901444        1.43988522150046       -3.26454048397181
H            9.41500904287875        1.80816343488765       -2.73892321834396
H            8.13266508135399        2.99836995325836       -2.52520329703354
H            6.66853643992288        3.66273080926294       -0.88932576299092
H            4.31526603576393        4.01532288442578       -0.51203449292858
H            1.93440823998431        3.86302688759733       -2.21557841255895
H            1.10653172531970        6.14454626029232       -2.01385318226615
H           -0.63901002825699        7.09792713222633        2.09627071733887
H           -1.50960901890756        6.88530109799876        0.57980399830065
H           -1.20297432551592        8.50847265646119        1.20573127712556
H            1.75404195309688        7.97008131285957        2.07921438263050
H            2.51027720327053        8.42637842790903        0.55379035883454
H            1.20932655734662        9.41289356340605        1.22699830883068
H            1.17703387511489        8.37003507117462       -1.60071494270159
H           -0.11759210593785        9.27392818209788       -0.82528493233870
H           -0.47971248835356        7.73609339749551       -1.60043268085204
H            1.17419628144108        5.77786298290063        2.24807408575834
H            2.00509645365843        3.49180592496540        2.03001162323818
H           -0.14923520598874        2.56744330270744       -0.36406477593612
H           -0.98038327106957        2.29559110760760        1.75680708952814
H           -2.07534363241684        3.80895180012664        3.32847748766154
H           -4.54222754771999        4.05532197214968        3.30553939824970
H           -5.88151317425798        2.65896246157619        1.79529963074954
H           -5.97159558762801        0.40140242639257        2.60200202040633
H           -5.87998087558967       -1.54826694709293        4.07983218024180
H           -4.80307570831767       -3.63780406177709        3.31475414977132
H           -3.84602280849070       -3.74506172582681        1.03318672148258
H           -3.98397345664385       -1.82307782168191       -0.45585276834926
H           -7.44508099686116       -0.57147879495424        0.48143336924720
H           -9.67808406369375        0.29101107720215       -0.04006462686437
H           -9.94799955178025        2.54166943018859       -1.02099841201848
H           -7.94736180939595        3.91432361404559       -1.49367267502223
H           -5.70842206992047        3.04944008942427       -0.96564080551932
H           -6.09444941274846        0.01781773707727       -2.32933374076950
H           -4.92312255759403       -0.53750680055552       -4.41567903741428
H           -2.44855485526137       -0.44784998655130       -4.49441830409211
H           -1.18139861859080        0.21273766885880       -2.50077199318940
H           -1.24137954351812       -1.52049349738493        0.07776222819963
H           -0.09160060296219       -3.80225869672486        1.97230080610048
H           -1.81745124859548       -5.48428869052216        1.63831203366019
