  57
        -83.53507000
 C          5.6678093194        2.8242192191        0.4400814985
 N          5.2914171969        1.5968428204       -0.2116608196
 C          6.3202025541        0.8899346562       -0.9295396856
 C          4.0059002260        1.1227099719       -0.1549106353
 C          3.5527120191        0.1355522098       -1.0464801031
 C          2.2628423239       -0.3352154001       -0.9915134128
 C          1.3589935576        0.1583487701       -0.0416364795
 N          0.0557547183       -0.3145580963       -0.0083156019
 C         -0.3336635757       -1.6809573243        0.0175149502
 C          0.5004001560       -2.8131269277        0.1472308490
 C         -0.0555532024       -4.0761833561       -0.1854199138
 C          0.6913355847       -5.2208748092       -0.0954070958
 C          2.0141907682       -5.1708661858        0.3466721432
 C          2.5598323515       -3.9487805349        0.7259362252
 C          1.8285941554       -2.7883021842        0.6393058780
 N         -1.6611345439       -1.7781023369       -0.0171886940
 C         -2.1726852771       -0.5540623094        0.0193708340
 C         -3.5917989594       -0.3610505716       -0.1350980933
 C         -4.1407489929        0.7759606108       -0.7442562623
 C         -5.5078578475        0.8960255753       -0.8863948609
 C         -6.3545017175       -0.1056519667       -0.4354278975
 C         -5.8196798409       -1.2502007407        0.1425746628
 C         -4.4560451855       -1.3825868254        0.2841269558
 C         -1.1116482913        0.4284173467        0.0840338693
 C         -1.2156433170        1.8391663773        0.1597559794
 C         -0.3093276451        2.7130515352       -0.4893031407
 C         -0.4641670728        4.0746232058       -0.4039236063
 C         -1.5057425334        4.6313567208        0.3341795016
 C         -2.4061114795        3.7901099717        0.9823175064
 C         -2.2729122799        2.4261890440        0.9007345242
 C          1.8021174742        1.1388399192        0.8537096679
 C          3.0933575537        1.6065326262        0.7988332811
 H          6.5303934033        3.2506640632       -0.0705743158
 H          5.9317864131        2.6669354014        1.4928130571
 H          4.8539675999        3.5477232712        0.3878500623
 H          6.1813084454       -0.1869179922       -0.8308283115
 H          7.2912337136        1.1443709120       -0.5064917656
 H          6.3288881660        1.1473366173       -1.9955957977
 H          4.2081504193       -0.2473573437       -1.8116314259
 H          1.9308617090       -1.0827365028       -1.6963831751
 H         -1.0761717486       -4.0974158104       -0.5328923472
 H          0.2559847972       -6.1709337156       -0.3701984130
 H          2.6011509941       -6.0740778368        0.4140894409
 H          3.5700509314       -3.9114347093        1.1093277388
 H          2.2529246580       -1.8656194915        1.0009182803
 H         -3.4900364922        1.5435779424       -1.1333285239
 H         -5.9192038336        1.7757569689       -1.3601246338
 H         -7.4239215068       -0.0013161668       -0.5441443763
 H         -6.4760248807       -2.0378908856        0.4833348548
 H         -4.0240710510       -2.2639466374        0.7323213228
 H          0.4804408918        2.3015708721       -1.0990901192
 H          0.2281142120        4.7224469157       -0.9235343857
 H         -1.6131142918        5.7029910844        0.4030081496
 H         -3.2122184129        4.2141286153        1.5640491416
 H         -2.9557077903        1.7816958573        1.4338055721
 H          1.1259464404        1.5142955978        1.6065122988
 H          3.4060325634        2.3382011798        1.5259883444
