57
 energy: -83.630704361761 gnorm: 0.000040489633 xtb: 6.7.1 (edcfbbe)
C            5.59319607547533        2.68729198084202        0.74849593767279
N            5.19034754485260        1.61182416412260       -0.12187632738285
C            6.17933447752271        1.02336403171540       -0.99023683374169
C            3.91663701067858        1.11262654373735       -0.07623212482647
C            3.46659957969692        0.18134299991814       -1.02579161232461
C            2.18183942094520       -0.31379498605561       -0.98696435672236
C            1.29713945978589        0.09482925022544        0.00430614497517
N           -0.01898570386819       -0.40573802308963        0.03116725606597
C           -0.41589224739687       -1.71607785790487        0.03886942978751
C            0.46524800430816       -2.86940928917948        0.11275127351036
C            0.04657585131484       -4.05793959096722       -0.48616574890540
C            0.83950223321316       -5.18682614666441       -0.42981014977943
C            2.05871237189061       -5.14883512066919        0.22797352578543
C            2.47022424097164       -3.97899122661084        0.84439704266473
C            1.68067687323969       -2.84535825489488        0.79463001019855
N           -1.72406775042613       -1.81154842710707        0.00560326687730
C           -2.21685696797238       -0.54436522239326       -0.01618242765747
C           -3.65028971008405       -0.30711397560954       -0.08964931487361
C           -4.18071819927161        0.84814864713359       -0.66081606582327
C           -5.54931145533042        1.03317569200995       -0.71388426728471
C           -6.40699465464680        0.06994244420413       -0.20846254325123
C           -5.88760726909185       -1.09044933919214        0.34243697087524
C           -4.52087448955051       -1.28004530309072        0.39997313601984
C           -1.16346546598366        0.35759125455856        0.00477304763634
C           -1.14159047813398        1.81391666551745        0.02483235283361
C           -0.32718060774716        2.53460404258414       -0.84670786206801
C           -0.31029863577891        3.91618799481514       -0.80322592241010
C           -1.10306329805814        4.59641032246655        0.10561002617538
C           -1.92033306002034        3.88720583671584        0.97139088309742
C           -1.93988711593360        2.50663286724220        0.93476690276623
C            1.72434486074038        1.01544180440851        0.95305719197869
C            3.00832119192078        1.51459365565113        0.91524002754478
H            6.53694832442672        3.10002942756017        0.39854390616128
H            5.72625151193040        2.35047438791419        1.78366755407278
H            4.85152033798014        3.48883515892731        0.73493424031148
H            6.17127151659580       -0.06618559751411       -0.90547338500681
H            7.16785997896078        1.37439768644186       -0.70283731944917
H            6.01013148946731        1.29370217279582       -2.03882770601796
H            4.11784672895015       -0.14982888978856       -1.81724027546781
H            1.85465159289190       -1.02493887125126       -1.73150384136287
H           -0.90759561699600       -4.07098672591979       -0.98941252630219
H            0.50829981806048       -6.10097431041794       -0.90066037716760
H            2.68178137491792       -6.03033210663646        0.26852733604814
H            3.41129196402405       -3.95002004623092        1.37475983556569
H            2.00340737354676       -1.94815039150667        1.30134551946573
H           -3.52051341434531        1.59591631909717       -1.07474664010935
H           -5.95006238804402        1.93342877157650       -1.15794207994366
H           -7.47609015096381        0.22047189172061       -0.25086393155361
H           -6.55324017348670       -1.84914715523712        0.72885597910770
H           -4.10076150539671       -2.18020912024535        0.82141981206698
H            0.28380119716016        2.01093911244264       -1.56772290034770
H            0.32326492981449        4.46449437742682       -1.48545446137388
H           -1.08704478418997        5.67593620744637        0.13763518775307
H           -2.54214776657727        4.41331896757340        1.68103293081463
H           -2.57336166707447        1.95029077111953        1.61024792285855
H            1.04634777730852        1.33491516787669        1.73080977140088
H            3.30542914447031        2.21437239878630        1.67826527730967
