  57
        -83.63069698
 C          5.5942846810        2.6900218979        0.7401913182
 N          5.1883759498        1.6171737923       -0.1318464293
 C          6.1760401169        1.0228900562       -0.9978976572
 C          3.9163882889        1.1140013871       -0.0786433885
 C          3.4667864811        0.1751464612       -1.0209007695
 C          2.1822951729       -0.3202927903       -0.9782259811
 C          1.2978379568        0.0940666918        0.0109087155
 N         -0.0186594844       -0.4052957752        0.0395794941
 C         -0.4160351930       -1.7154660537        0.0472990775
 C          0.4646037477       -2.8693890236        0.1184591358
 C          0.0458678040       -4.0552267796       -0.4857493868
 C          0.8388217103       -5.1842929688       -0.4345896687
 C          2.0579760038       -5.1491576902        0.2234978199
 C          2.4692604699       -3.9822536191        0.8455716103
 C          1.6797657976       -2.8483374235        0.8007853783
 N         -1.7242176229       -1.8106943210        0.0136790000
 C         -2.2165248907       -0.5434083946       -0.0094102232
 C         -3.6497810588       -0.3063179686       -0.0877040331
 C         -4.1781595140        0.8441162438       -0.6700744803
 C         -5.5466025906        1.0273779671       -0.7319144396
 C         -6.4059922560        0.0674325147       -0.2233448400
 C         -5.8884596579       -1.0875524738        0.3401813026
 C         -4.5218816332       -1.2756130627        0.4060333722
 C         -1.1630371319        0.3583745580        0.0118484434
 C         -1.1417871931        1.8146188316        0.0316949419
 C         -0.3234975688        2.5357706641       -0.8358796095
 C         -0.3060508670        3.9172925052       -0.7908941186
 C         -1.1023434415        4.5971207621        0.1151442851
 C         -1.9245719829        3.8875910772        0.9758853454
 C         -1.9446090042        2.5070494296        0.9379322409
 C          1.7256639288        1.0197604571        0.9544352189
 C          3.0090290255        1.5202170145        0.9119427143
 H          6.5393774870        3.1003702561        0.3911746580
 H          5.7257484241        2.3519175548        1.7751048053
 H          4.8550414110        3.4938496928        0.7270075537
 H          6.1811881758       -0.0652615093       -0.8936528928
 H          7.1631638872        1.3903975667       -0.7270953907
 H          5.9937375442        1.2722435116       -2.0493335052
 H          4.1179999448       -0.1618164055       -1.8098868173
 H          1.8550744707       -1.0361618185       -1.7182022507
 H         -0.9081316712       -4.0657547450       -0.9893832103
 H          0.5077696138       -6.0962259013       -0.9097847486
 H          2.6811128232       -6.0307679237        0.2598466426
 H          3.4101598463       -3.9557976517        1.3763377203
 H          2.0020930972       -1.9534587495        1.3119313058
 H         -3.5162372532        1.5888427167       -1.0869302545
 H         -5.9458871397        1.9232815604       -1.1857547028
 H         -7.4749868066        0.2162120500       -0.2733326824
 H         -6.5553227452       -1.8437210646        0.7286978062
 H         -4.1032561749       -2.1719894410        0.8368502923
 H          0.2903466449        2.0126012793       -1.5548208009
 H          0.3318118127        4.4657414936       -1.4690458528
 H         -1.0845085311        5.6764305042        0.1493673126
 H         -2.5492817612        4.4133816843        1.6831336698
 H         -2.5818319500        1.9505329749        1.6097147890
 H          1.0484975127        1.3429899518        1.7313428741
 H          3.3060575681        2.2249252474        1.6704302993
