  80
       -119.34201375
 C         -5.5972357858        3.4229258279       -0.8266304387
 C         -5.9362573728        1.9461119689       -0.5479209169
 C         -7.4618615754        1.7356847023       -0.5759672665
 C         -5.4213587408        1.5829367381        0.8292794244
 C         -5.8918554815        2.2630508247        1.9436443117
 C         -5.4481631503        1.9713077988        3.2207477190
 C         -4.5027418196        0.9742128428        3.4043640015
 C         -4.0167740763        0.2828856326        2.3180560474
 C         -4.4679940570        0.5716921020        1.0222444801
 N         -3.9623781180       -0.1390655121       -0.0421841412
 C         -2.9883443617       -1.1522202913        0.2065368655
 C         -3.4199579577       -2.4521304760        0.5120788447
 C         -2.5038718189       -3.4512404957        0.7618114795
 C         -1.1467147299       -3.1510535528        0.7090045210
 C         -0.7110123180       -1.8257449837        0.3974455890
 C         -1.6415301073       -0.8322513285        0.1453650465
 C          0.7194432362       -1.8170160595        0.4266682127
 C          1.6471216203       -0.8136546943        0.2060923478
 C          2.9948132420       -1.1191168883        0.3108690509
 N          3.9651329710       -0.0969710327        0.0919082680
 C          4.5944945017       -0.0273242414       -1.1306153134
 C          4.2632898026       -0.9543079723       -2.1291816505
 C          4.8818504934       -0.9185468171       -3.3581910552
 C          5.8401200293        0.0480820052       -3.6204687457
 C          6.1570662085        0.9754394989       -2.6445361567
 C          5.5514968889        0.9639618211       -1.3960158352
 C          5.9213833644        2.0155614223       -0.3709850258
 C          7.4303662584        1.9143671473       -0.0789145398
 C          5.5827926534        3.4031237556       -0.9486849096
 C          5.1642450921        1.8316543702        0.9275710402
 C          5.3871633972        2.7029921007        1.9844924700
 C          4.7326232842        2.5681132936        3.1952392317
 C          3.8308364546        1.5301440756        3.3715255151
 C          3.5868700193        0.6519309908        2.3403079782
 C          4.2376404484        0.7931730775        1.1062922094
 C          3.4292407785       -2.4145585617        0.6342582920
 C          2.5161544724       -3.4224211608        0.8564289119
 C          1.1582166345       -3.1377551761        0.7534948939
 C          0.0069177077       -4.0057389150        0.9363459437
 O          0.0082969110       -5.2195979816        1.2277205266
 C         -4.3629113399        0.0986855093       -1.3370331228
 C         -3.8178472028       -0.6677687621       -2.3768937454
 C         -4.1962208949       -0.4547814792       -3.6829297904
 C         -5.1276664821        0.5281599361       -3.9796598795
 C         -5.6699140387        1.2845373402       -2.9565175504
 C         -5.3091627643        1.0924106068       -1.6303796096
 H         -6.0413777507        4.0703991490       -0.0759575392
 H         -5.9670595037        3.7275667551       -1.8015766991
 H         -4.5182395644        3.5652026128       -0.8083542590
 H         -7.8718099147        2.0017120449       -1.5460236120
 H         -7.6949647283        0.6910631158       -0.3787638262
 H         -7.9504639432        2.3449460493        0.1789390249
 H         -6.6254182433        3.0449760478        1.8188976096
 H         -5.8361908287        2.5192691551        4.0652893252
 H         -4.1440903573        0.7361024250        4.3939905837
 H         -3.2802030152       -0.4920711592        2.4566021730
 H         -4.4805413600       -2.6536360968        0.5464755570
 H         -2.8279153069       -4.4534948341        0.9968232929
 H         -1.3364032414        0.1768307989       -0.0924172546
 H          1.3387008507        0.1919455615       -0.0419883921
 H          3.5131930953       -1.7012338060       -1.9251939536
 H          4.6152689033       -1.6434182419       -4.1120073624
 H          6.3326939245        0.0840692028       -4.5796704765
 H          6.8971269613        1.7282921283       -2.8696418156
 H          7.6634886066        0.9313587806        0.3260773138
 H          7.7364946499        2.6647229606        0.6443974783
 H          8.0110663318        2.0588759627       -0.9853816124
 H          4.5165200025        3.4670402266       -1.1579696322
 H          6.1247631651        3.5801281290       -1.8733569874
 H          5.8421613720        4.1893111354       -0.2453393484
 H          6.0917136506        3.5121534026        1.8668286903
 H          4.9291279706        3.2641753900        3.9958439745
 H          3.3190831613        1.4043763191        4.3133248312
 H          2.8910179188       -0.1600337607        2.4772129762
 H          4.4901454017       -2.6033327051        0.7088257556
 H          2.8423806007       -4.4199505902        1.1079767507
 H         -3.0960057626       -1.4332787464       -2.1414713592
 H         -3.7660476858       -1.0558165954       -4.4692983317
 H         -5.4311679382        0.7038402864       -4.9999773176
 H         -6.3944761942        2.0448150309       -3.2056875775
