  74
       -116.07572154
 C         -5.7484566173       -2.9147375665       -1.7620973614
 C         -5.4477828834       -2.1877810865       -0.4385812308
 C         -6.2892890569       -2.7887113311        0.7018522156
 C         -5.8171525062       -0.7244039755       -0.5960146698
 C         -7.1278246665       -0.3734746201       -0.8893166043
 C         -7.5164955525        0.9439910943       -1.0482903892
 C         -6.5758905100        1.9496025594       -0.9165445991
 C         -5.2661321093        1.6296731074       -0.6271376251
 C         -4.8743384417        0.2988619248       -0.4612872397
 N         -3.5507879031        0.0102969974       -0.1706561357
 C         -2.6119225977        1.0683279790       -0.0470443119
 C         -1.8415340615        1.4371442764       -1.1464311322
 C         -0.8439432820        2.3825520184       -0.9966995378
 C         -0.6385607788        2.9593819450        0.2424869677
 S          0.8635675067        3.9183298596        0.4869381996
 O          1.0551283807        4.8351924661       -0.6050300281
 O          0.8579327842        4.4476899566        1.8250247657
 C          2.0589631241        2.5863254131        0.3494493826
 C          3.1126221251        2.6923487953       -0.5495290904
 C          3.9933297483        1.6434730021       -0.7313941797
 C          3.7797181417        0.4810417049        0.0012321496
 C          2.6847645432        0.3669978392        0.8966370513
 C          1.8258664081        1.4395693852        1.0790768341
 C          2.7222795670       -0.9679056716        1.4213536941
 C          1.9245576960       -1.6621842356        2.3222665977
 C          2.2564266582       -2.9673895832        2.6244938114
 C          3.3746065788       -3.5732962050        2.0541105104
 C          4.1803078149       -2.9033527964        1.1534517430
 C          3.8369211356       -1.5995869670        0.8247280959
 N          4.4650801893       -0.7101860824       -0.0270326959
 C          5.6068607366       -0.9827848929       -0.7999750592
 C          6.7018535159       -0.1261379729       -0.7524981469
 C          7.8208523734       -0.3963936186       -1.5186538009
 C          7.8600839816       -1.5217210069       -2.3251363104
 C          6.7717200402       -2.3770693906       -2.3690139526
 C          5.6440357855       -2.1098080654       -1.6146278937
 C         -1.4310884017        2.6392778388        1.3279032267
 C         -2.4290615181        1.6916274894        1.1830602942
 C         -3.1002491960       -1.2885046789        0.0109421700
 C         -1.7567690092       -1.5201063675        0.3227826182
 C         -1.2821432314       -2.8015999812        0.5096798667
 C         -2.1432999751       -3.8770727787        0.3889123170
 C         -3.4727820892       -3.6497473665        0.0835920549
 C         -3.9778974810       -2.3710192956       -0.1079956413
 H         -5.5156961961       -3.9732199538       -1.6851071596
 H         -6.7965138397       -2.8147875072       -2.0302624753
 H         -5.1474163754       -2.4884741536       -2.5631582399
 H         -6.0647123191       -3.8428890953        0.8373359220
 H         -7.3510630895       -2.6921912605        0.4935449865
 H         -6.0738429858       -2.2693739515        1.6336494888
 H         -7.8728645546       -1.1468962857       -0.9996367034
 H         -8.5446700449        1.1813347415       -1.2747180254
 H         -6.8585625049        2.9842874441       -1.0394229238
 H         -4.5328372251        2.4158397140       -0.5284467107
 H         -2.0128082138        0.9559615239       -2.0976127692
 H         -0.2118543520        2.6731142659       -1.8214039440
 H          3.2152033825        3.6122901007       -1.1028489646
 H          4.8069738544        1.7190652247       -1.4359236896
 H          0.9935903471        1.3848584490        1.7629972399
 H          1.0673191592       -1.1863679932        2.7735306389
 H          1.6484812408       -3.5282217943        3.3183357740
 H          3.6185482042       -4.5898608301        2.3244031013
 H          5.0518057636       -3.3772471080        0.7282618614
 H          6.6743849531        0.7382513909       -0.1061077257
 H          8.6687900752        0.2707749463       -1.4791659541
 H          8.7367733741       -1.7312903547       -2.9187698978
 H          6.7966398030       -3.2526817601       -3.0003613279
 H          4.7847233458       -2.7618253167       -1.6617951018
 H         -1.2374744115        3.1247478906        2.2720361259
 H         -3.0499873236        1.4069608067        2.0192878431
 H         -1.0759968984       -0.6875345997        0.4174800859
 H         -0.2400102049       -2.9537638879        0.7501188956
 H         -1.7851121483       -4.8851685966        0.5313222606
 H         -4.1323187338       -4.4994478695       -0.0078721583
