133
 energy: -188.609100175787 gnorm: 0.000053811284 xtb: 6.7.1 (edcfbbe)
C           10.59805514767980       -4.71856230999532       -2.80466755729514
C           11.51009923892260       -4.24215732531333       -1.71443464819778
C           12.31838215710618       -5.14510780244682       -1.03125851097553
C           13.17150917763276       -4.70292562929905       -0.03627166218257
C           13.22775707821537       -3.36358370627756        0.29865331458311
C           12.42806822092917       -2.44514727781517       -0.37885312021214
N           12.47031477980241       -1.08494843799122       -0.05006212012369
C           13.68431201238799       -0.48971698115578        0.30744145076550
C           14.87015388661727       -0.86527144251052       -0.32381063097859
C           16.06697078079617       -0.27776667038422        0.03657934849132
C           16.10318495769893        0.69585796896333        1.02136601863483
C           14.92783827316305        1.07571355978285        1.64858792370449
C           13.72724201868925        0.48816597973180        1.30136551232978
C           11.29707246548849       -0.32479246643185       -0.08314241845000
C           11.32862084196479        1.00326806535106       -0.51506997822545
C           10.17652684763088        1.76463885788771       -0.56205677851593
C            8.97287070825307        1.18926543255088       -0.18613026827062
C            8.93604619394717       -0.14569751305027        0.24576549891287
C           10.08261112902723       -0.89907219287064        0.30817987982705
C            7.52377443805619       -0.55754733625380        0.59490028020313
C            7.05418491268791       -1.70776649640461       -0.30109250624947
C            7.40728068798801       -0.94580112320820        2.07157221495810
C            6.75824109140250        0.71395152687070        0.30139011556146
C            5.40981030303802        0.95122419553244        0.42246878498925
C            4.90052813499921        2.21255761632118        0.09956481441833
C            3.46063419466247        2.47821997546894        0.21188151524172
C            3.00005878444632        3.68908542238571        0.72973650632051
C            1.64818159569181        3.95854641246140        0.83959180737661
C            0.73961928595139        3.00136653336666        0.41767087029111
C            1.19128041092858        1.78031835421603       -0.10550061596542
C            2.53661247801618        1.51593868407690       -0.20556684339626
C            0.02446470754998        0.90459033670205       -0.50490438195296
C            0.01273962871107       -0.40198816546501        0.29413982475440
C            0.04376916967705        0.61321232908144       -2.00852924101590
C           -1.15107696087221        1.78189767914774       -0.13588764527266
C           -2.49368109007013        1.51874242436127       -0.26976347556870
C           -3.42683830097737        2.48210721431110        0.12395181329050
C           -4.86364456758369        2.21604118748203       -0.02215778782134
C           -5.72431596386426        3.21012762681452       -0.48800333235496
C           -7.07760368897911        2.97510718796173       -0.64828880981959
C           -7.58104471778901        1.72401432591228       -0.32980588561811
C           -6.72547909100896        0.71876394472579        0.14722157534512
C           -5.38007465764572        0.95671001497628        0.29694645787780
C           -7.49792152254403       -0.55013607845024        0.43344922479969
C           -6.99431301839412       -1.71378550563005       -0.42471421260806
C           -7.43337975044564       -0.91303169618993        1.92047216583780
C           -8.90057026537322       -0.14281739548302        0.04280305125602
C          -10.04728998398594       -0.89766390095502        0.07800029178563
C          -11.25754983314613       -0.31637304931703       -0.31579357493554
N          -12.43832138265832       -1.06431728800464       -0.26631611553145
C          -13.41559280330082       -0.90246958980515       -1.25316389851419
C          -13.05041680602128       -0.67409726466707       -2.58006707834439
C          -14.01916096871241       -0.51306645301293       -3.55104301340549
C          -15.36282743547831       -0.58458542415598       -3.22160249513244
C          -15.73114808431497       -0.81454518845885       -1.90609260502837
C          -14.77010124163713       -0.96831174599024       -0.92624824271082
C          -12.63614812864172       -1.98090715836894        0.77324679773647
C          -13.27906337023592       -3.19453543319308        0.53740623249406
C          -13.46135025241996       -4.08886381686703        1.57484299087739
C          -13.00028325622054       -3.79705535504971        2.84587565111244
C          -12.35253920487213       -2.59178604648618        3.09749574443436
C          -11.86717144614625       -2.26838235606582        4.47846948620818
C          -12.18275546476888       -1.69124190750293        2.05992996152914
C          -11.28103158663622        1.01179613418135       -0.74756705317886
C          -10.12398087939481        1.76564804902668       -0.79533983417353
C           -8.92809627258236        1.19044341387080       -0.39509062180771
C           -2.97853493992538        3.69314699216854        0.65188057981776
C           -1.62957194414345        3.96113087828415        0.79621859416286
C           -0.71161208652235        3.00247344577218        0.39863228771799
C            5.77197985870795        3.20972832000723       -0.33910501662853
C            7.12872158406099        2.97602448402490       -0.46884103007365
C            7.62468495416648        1.72249581163226       -0.14824538294093
C           11.57768852791857       -2.89877964371256       -1.38681319378086
H            9.89044358127529       -3.94330496781810       -3.08775281640885
H           10.04582400889121       -5.60014424735698       -2.48396589721601
H           11.17844126688427       -4.99248680988862       -3.68581860093337
H           12.27617390353647       -6.19494828985645       -1.28155999176266
H           13.79277872026880       -5.41006386059981        0.49370836977161
H           13.88422602860711       -3.02305818471914        1.08554563480368
H           14.84342398361548       -1.61715668959304       -1.09897518422134
H           16.97744185462559       -0.57654089566077       -0.46210044286531
H           17.04016395468482        1.15506456220736        1.29780881902970
H           14.94678071091395        1.83007120425690        2.42156967674695
H           12.81355075526099        0.77909216229923        1.79881506690833
H           12.27157910461804        1.43174254553083       -0.82197078039560
H           10.21765477440680        2.78876517316165       -0.90171438091995
H           10.06331538372389       -1.92315904430739        0.65144810172651
H            7.67051001985070       -2.58914369432856       -0.13824327661674
H            7.12688560332879       -1.42087786391621       -1.34828527762353
H            6.01942582978185       -1.96017880506123       -0.08114016250064
H            8.01748817018398       -1.82136579408931        2.28113180005113
H            6.37365013929594       -1.17248595237069        2.32261548427073
H            7.74567738652748       -0.12655124463198        2.70246158016863
H            4.74250607492175        0.18213466064430        0.78433531267409
H            3.71835071257151        4.42076239640602        1.07039271940291
H            1.30943796328374        4.89910338748834        1.24857150507063
H            2.88836356184088        0.58484216771326       -0.62635496871877
H           -0.00016196394272       -0.18964398780993        1.36131524020961
H           -0.86857640937084       -0.98891052976054        0.04557373111573
H            0.89804325247641       -0.99171792718252        0.06743078189170
H            0.05037823824021        1.54456710271452       -2.57092199883385
H            0.93143594392638        0.04259522262425       -2.27190223853260
H           -0.83619785446615        0.04151438212570       -2.29443169974818
H           -2.83591790108048        0.58779761983507       -0.69868392172923
H           -5.31659378288878        4.17550035762832       -0.75106427009744
H           -7.72791173179710        3.75370956301867       -1.01905219518004
H           -4.72114355626788        0.19038670276780        0.67945296780137
H           -5.96357471784264       -1.95117985083311       -0.17154663063627
H           -7.60565655438277       -2.59788451299227       -0.25912730953498
H           -7.04176777744308       -1.45039204141285       -1.47934836403837
H           -8.05989862180646       -1.77843101567907        2.12507868238306
H           -7.78352146879024       -0.07893473095731        2.52518994084366
H           -6.41091632089510       -1.14497872466023        2.20948926499659
H          -10.03163240949558       -1.92786321985276        0.40268612427797
H          -12.00331214793404       -0.62797853189233       -2.84154928714053
H          -13.72199268750110       -0.33931969105928       -4.57498005434630
H          -16.11703396349703       -0.46207137241623       -3.98409102417259
H          -16.77641768390293       -0.86624073999612       -1.63840797585822
H          -15.06043824635930       -1.13771647725454        0.10035505936346
H          -13.62714840486822       -3.43115103401124       -0.45706223460775
H          -13.95895223968185       -5.02874169622571        1.38527529694946
H          -13.14115626060658       -4.50528446880346        3.64909061700476
H          -12.71291355799956       -2.06326609406324        5.13484010330216
H          -11.31828305975900       -3.10975233364680        4.89791416873885
H          -11.21977308160868       -1.39509917413754        4.46979330008674
H          -11.69155287676264       -0.74614683860452        2.24365484957093
H          -12.22369397977109        1.45012371293297       -1.04123630686640
H          -10.15953008671601        2.79196940633983       -1.12895493451299
H           -3.70467288667362        4.42588710340073        0.97313960068443
H           -1.30036716329463        4.90159496447110        1.21312335985276
H            5.37062070060214        4.17686685446529       -0.60538035207313
H            7.78740884446750        3.75745888594042       -0.81823476095731
H           10.96406946582244       -2.18478010511121       -1.91776073764452
