133
 energy: -188.530022163294 gnorm: 0.000070044676 xtb: 6.7.1 (edcfbbe)
C           12.75723712290104       -4.16483729632810       -2.39401706692993
C           13.42607000158641       -3.25483470878736       -1.40887342440859
C           14.52165977734356       -3.69909785706743       -0.67452110161662
C           15.14889510137533       -2.85513477291252        0.22460765691517
C           14.69456590467691       -1.56396996965166        0.41214468635985
C           13.60067364932763       -1.10187958488560       -0.31831618439517
N           13.12254748585875        0.20045910372557       -0.13807113856103
C           14.01752217053528        1.24823294980951        0.09297708378055
C           15.25761586274685        1.27541159184440       -0.54676336149278
C           16.13801385619814        2.31301741429642       -0.31250308241091
C           15.79867107924698        3.34043706142724        0.55314852177210
C           14.56718321569910        3.32021414985982        1.18819092207558
C           13.68197465747020        2.28417917628323        0.96603101200514
C           11.74986794164789        0.44915828764424       -0.19832967216398
C           11.26968795199123        1.63187607926037       -0.77530908020487
C            9.91865799807507        1.88455537145730       -0.86028267475429
C            9.01716901752196        0.94074071938431       -0.36750478197789
C            9.50121995866647       -0.25048396346383        0.21805190371683
C           10.84438426070516       -0.49664685576952        0.30872192706562
C            8.35303360741742       -1.11956523514943        0.67915642555631
C            8.36460672335418       -2.46950109676551       -0.04477833734161
C            8.38951597669649       -1.32527580914878        2.19646851584778
C            7.15854284214717       -0.28526687120354        0.26755214960969
C            5.83245836601298       -0.56906825084725        0.41306356844998
C            4.85165249516350        0.35280790694428       -0.03009346674479
C            3.45019642693719        0.06990607971663        0.09936048348278
C            2.97480663060939       -1.26583434053505        0.16375556768882
C            1.64525082126202       -1.56675708611601        0.25421766446195
C            0.70385250544351       -0.52285454365394        0.30443214549155
C            1.16373232456068        0.82464650115337        0.25616653179581
C            2.48809407244185        1.11402765438876        0.15046578087266
C           -0.01055922425736        1.77690625428005        0.33377035798447
C           -0.09302054573210        2.65624870492116       -0.91766693964145
C            0.06530131723511        2.64598328497619        1.59336884974778
C           -1.17740851285852        0.81530091751727        0.40758903035398
C           -2.50712822957533        1.09412482388787        0.47118749850696
C           -3.45974243404962        0.04192087327098        0.50357485445054
C           -4.86989038524302        0.31612561411090        0.53652944318206
C           -5.36935945707924        1.52749738113640        1.06941465542082
C           -6.71016499312104        1.81493027217789        1.10288133949718
C           -7.61903350612303        0.89092677271903        0.58240155908354
C           -7.14068745188785       -0.32670677515129        0.04413286568417
C           -5.80713883654757       -0.61475954406942        0.02656974718845
C           -8.29300141234594       -1.16217732377437       -0.47156006335033
C           -8.17030303534595       -1.40819081895029       -1.97810996163272
C           -8.39544358911503       -2.49229375313974        0.28169381909979
C           -9.47460074024908       -0.27319896393893       -0.15621990085512
C          -10.80153402863575       -0.50433649256584       -0.40000238481199
C          -11.74609409897320        0.46153058068870       -0.01867145709774
N          -13.10512637819607        0.23386517655202       -0.24523881434810
C          -13.94499996515081        1.29163385514234       -0.60324553385934
C          -13.48339473454641        2.30873662688689       -1.44012461895566
C          -14.31561124561114        3.35403315740215       -1.78815767869741
C          -15.61780639563781        3.40220421276167       -1.31683379745093
C          -16.08216743997005        2.39348209838495       -0.48803536825926
C          -15.25623674469396        1.34695058594486       -0.12851704499661
C          -13.62368913398784       -1.05907449872315       -0.11652742282251
C          -14.62189146292476       -1.51289966609543       -0.97758578358302
C          -15.11641391498941       -2.79542286603302       -0.83935960169216
C          -14.62275811294437       -3.63918096706240        0.13976090699919
C          -13.62380713647921       -3.20319087310049        1.00500477442557
C          -13.10162167084675       -4.11134258062297        2.07674456157829
C          -13.13746288711663       -1.91401395167063        0.87299709212899
C          -11.32014441631504        1.64537909916297        0.59667367801950
C           -9.98451937764177        1.88238675313594        0.83594926609143
C           -9.04531333893473        0.92153261908333        0.46260538584351
C           -2.97171959726196       -1.28977972813339        0.49359509631310
C           -1.63710473081778       -1.58007104869413        0.44972015740221
C           -0.70502474219763       -0.52843869338873        0.39205679280644
C            5.30310863727658        1.55902466196531       -0.61791761296289
C            6.63477888283601        1.84339597900243       -0.77692141945609
C            7.58734143455542        0.92173631676444       -0.33452959371536
C           12.97908181843754       -1.95741603422168       -1.22853140040349
H           11.82056397333638       -3.73909671165478       -2.74464163027583
H           12.55616494184884       -5.13480211904089       -1.94264560763361
H           13.40566348879021       -4.32731067841508       -3.25492415112686
H           14.88042862450286       -4.70871190938789       -0.80986429186952
H           15.99508182122587       -3.20916334804226        0.79488712409889
H           15.17517533888872       -0.91204251441221        1.12629399834170
H           15.51909351494060        0.48184600264823       -1.23135674267402
H           17.09320443748355        2.32403119816639       -0.81656886300486
H           16.48881048741167        4.15092661137298        0.73138698576149
H           14.29691629461933        4.11390652814763        1.86900818955588
H           12.72705918529136        2.26347993421577        1.47032842538673
H           11.97924189368243        2.34387621402853       -1.17165050764568
H            9.56339386848751        2.79552578891852       -1.31778658758673
H           11.22131916323453       -1.39988075072315        0.76623092027691
H            8.32829466125416       -2.31752649130546       -1.12167885079278
H            7.50270774143733       -3.06336723327094        0.25014483165380
H            9.26923134475600       -3.02255382268467        0.19886550270263
H            9.28737899137984       -1.86801034235159        2.48378468386326
H            7.52007437557554       -1.89201852154205        2.52125000861058
H            8.38566108920638       -0.36363777789676        2.70538375450469
H            5.52500433226736       -1.48100437703778        0.90208512574070
H            3.68703188090551       -2.07416048444738        0.09116168473757
H            1.31350425914926       -2.59473092875972        0.27746260840340
H            2.81936274423538        2.14160754645162        0.14388620852463
H           -0.14333629333947        2.03524030153318       -1.80971219843608
H           -0.98038399848455        3.28424286713648       -0.88190134627408
H            0.78359724037446        3.29624027964450       -0.98894056128440
H            0.12093890579016        2.01748447295437        2.47984811625376
H            0.94785542703196        3.28105615909290        1.56272328106751
H           -0.81671727763948        3.27790206165216        1.67049492764609
H           -2.84855956565336        2.11820627935536        0.44952360163232
H           -4.67516885799173        2.23267817961446        1.50101220546137
H           -7.06139201475574        2.74257318239108        1.53141268749629
H           -5.45749065450282       -1.53441843134327       -0.41764727320293
H           -8.10173252081757       -0.46060054760924       -2.50831679860440
H           -7.27768864781978       -1.99064881459282       -2.19386395985999
H           -9.03836797862432       -1.95109227400567       -2.34544690933241
H           -9.27441967086462       -3.04490778232700       -0.04333288111406
H           -8.47307045479612       -2.31193911215359        1.35201064014000
H           -7.51284160459974       -3.09989076355840        0.09619242132962
H          -11.13467309947717       -1.40972250714000       -0.88629676324729
H          -12.47233528733811        2.26620737290391       -1.81769453245764
H          -13.94727333879803        4.13282708613472       -2.43956663749879
H          -16.26597132715230        4.21975510297307       -1.59334760843144
H          -17.09385749664489        2.42618936271041       -0.11118914979388
H          -15.61645493839043        0.56780644419249        0.52720605463549
H          -14.99644901307789       -0.86161292500622       -1.75318251416492
H          -15.88754880770914       -3.14324014528649       -1.51090778612305
H          -15.01129602404432       -4.64226176368360        0.23578592981173
H          -12.89733231736204       -5.10144916337244        1.67348636084581
H          -12.18935660087989       -3.71384798249681        2.51425277282726
H          -13.84288385794138       -4.22136891642047        2.86836507189862
H          -12.37106490334455       -1.55636247407622        1.54575399349807
H          -12.06084137145996        2.37268918682915        0.89646044789109
H           -9.67243592454123        2.79606562471603        1.31887946607664
H           -3.67983597875621       -2.10200553365719        0.56507962603234
H           -1.29533060962877       -2.60492941814097        0.46202936827179
H            4.57413150799150        2.25998662891502       -0.99525239113917
H            6.94618788378114        2.76458907601565       -1.24801270716838
H           12.13811766472005       -1.59334913617703       -1.80131334688965
