133
 energy: -188.529938118805 gnorm: 0.000119958650 xtb: 6.7.1 (edcfbbe)
C           10.59071069492609       -4.58519264444009       -2.98884151516010
C           11.48269827777747       -4.17166609873485       -1.85774923064056
C           12.26317625412434       -5.11645579429052       -1.19804597474400
C           13.09770181179099       -4.73374262656275       -0.16305002383491
C           13.16347079511569       -3.41265028821645        0.23574032497767
C           12.39064670889254       -2.45300426215374       -0.41663729152175
N           12.43873557748983       -1.11168609043994       -0.02186226511251
C           13.64882098493323       -0.54941036630757        0.39342945342947
C           14.84673346043705       -0.91038231646247       -0.22501630579693
C           16.03933988476271       -0.35225701178773        0.19068390403172
C           16.05981966637201        0.57543234055394        1.21980444064021
C           14.87288200347520        0.93967844714389        1.83522399105744
C           13.67557779059826        0.38294003684584        1.43164956620283
C           11.27676883196358       -0.33835079758419       -0.04796954280772
C           11.33511727739970        1.01456307941304       -0.40699379966652
C           10.19706706616566        1.78849242005446       -0.45291512377549
C            8.96646605637534        1.20879132460618       -0.14335093974157
C            8.90719518531598       -0.15538821990609        0.21951433076147
C           10.04030459630232       -0.92082445638796        0.27410270684932
C            7.48079072614910       -0.56622432859420        0.50728007214513
C            7.02711961810256       -1.67141773505325       -0.45155592792597
C            7.31738310358384       -1.01839740717296        1.96147875241277
C            6.73627567422108        0.72651836334280        0.24882454492395
C            5.39680948081142        0.96860558843575        0.33506106437374
C            4.88644140144411        2.26337949614256        0.06896817523858
C            3.47889847944765        2.53520120970656        0.14495285518621
C            2.99306311240286        3.84203436671408        0.40927645964152
C            1.65857930832272        4.12624593217579        0.47993042750844
C            0.72226433168527        3.09834460940685        0.26685493331416
C            1.19215503339563        1.78015827291103        0.00048955796460
C            2.52240892313884        1.50301350737634       -0.04899803651510
C            0.02119812487894        0.84447850271790       -0.21216528277075
C            0.00775353972910       -0.27251330747755        0.83618054379140
C            0.03822919129213        0.25158039198635       -1.62472089791424
C           -1.15365035982787        1.78129077529532       -0.02820605053796
C           -2.48299920849697        1.50547831657339       -0.10996746962487
C           -3.44156103859594        2.53887117865128        0.05961455683195
C           -4.84856986915929        2.26893943573762       -0.05137902507517
C           -5.75869992696305        3.27797391031339       -0.44411312428929
C           -7.10216089303086        3.03809919436027       -0.58119988748838
C           -7.59814144391521        1.76095994385131       -0.30981370462339
C           -6.70695236724454        0.74013092368103        0.09615547350075
C           -5.36890707484667        0.97946845675663        0.21602348834721
C           -7.46303354119317       -0.54702473929147        0.34903798993546
C           -6.97743547584043       -1.66876050759171       -0.57316750797868
C           -7.35334474826021       -0.97471751195640        1.81632393553234
C           -8.87960034348364       -0.13514120564777        0.01727900955335
C          -10.01701425802152       -0.89620875986483        0.04911724383681
C          -11.24438825912684       -0.30735848098709       -0.29355795326678
N          -12.41664207011888       -1.06554866635794       -0.25336552889007
C          -13.41862847616823       -0.85938956675678       -1.20522191560007
C          -13.08612501771269       -0.55735202958219       -2.52670241963582
C          -14.07893838649299       -0.34914525979023       -3.46331607983659
C          -15.41407980570444       -0.44388957879257       -3.10470081878115
C          -15.74980239251818       -0.74682190695923       -1.79490661826549
C          -14.76486270483046       -0.95024300383332       -0.84873002142053
C          -12.58474511039251       -2.03263427930553        0.74323786514429
C          -13.23061052240142       -3.23615349798030        0.46350996860587
C          -13.38125899724342       -4.18166292905337        1.45943244933833
C          -12.88748435402935       -3.95042817726496        2.73104921123305
C          -12.23693713403101       -2.75607604820259        3.02596803671397
C          -11.71784525237946       -2.49860473621292        4.40808959283794
C          -12.09684055660666       -1.80479015993187        2.03032266218902
C          -11.28862777089605        1.04230716078822       -0.66500434739533
C          -10.14422985136188        1.80778154317852       -0.70278534469484
C           -8.92452236526497        1.22498803909876       -0.36034719164818
C           -2.96213866006981        3.84491021402319        0.33475422888930
C           -1.62923231434445        4.12792088825558        0.43888565401991
C           -0.68937934219220        3.09895613879612        0.24936191624918
C            5.81157075837733        3.27447561241749       -0.28534086495119
C            7.15709883675410        3.03212930550233       -0.38772326536271
C            7.64232900217748        1.74919454227747       -0.12051051982533
C           11.55844595891196       -2.84661425532803       -1.46515166806969
H            9.92100710907862       -3.77747033999766       -3.27280340644909
H            9.99662088272025       -5.45337847537695       -2.70890322356207
H           11.18896159183428       -4.85862227065721       -3.85792434869399
H           12.21366278258981       -6.15265368764435       -1.49837547758584
H           13.69629271238237       -5.47374057360098        0.34750669212545
H           13.80279690694768       -3.11845756704402        1.05471502625358
H           14.83138043281325       -1.62433101367511       -1.03547874492991
H           16.95907781437817       -0.63740075012364       -0.29854999056699
H           16.99392986894070        1.01134542230668        1.53975584142862
H           14.88039612563786        1.65749217745169        2.64218145884709
H           12.75239625786764        0.65897961384230        1.91964259589831
H           12.29221318929263        1.44448471943011       -0.66505247645043
H           10.25691784068795        2.82715870276352       -0.74095087558959
H           10.00312902956200       -1.96068231105766        0.56482478020286
H            7.62831579897020       -2.56693297706962       -0.30937090039534
H            7.13365846151280       -1.34009006287765       -1.48257635899511
H            5.98351362961736       -1.92037199161165       -0.27401087478831
H            7.90995503179186       -1.91096897470979        2.14979255898512
H            6.27403122844539       -1.24116774503071        2.17233875021096
H            7.64673358219648       -0.23226665069537        2.63766147856341
H            4.72363552463039        0.18438860814359        0.64708940125768
H            3.70511942399260        4.63042885397475        0.60249727158297
H            1.31967666273415        5.12769747491206        0.70214469003350
H            2.85988468733118        0.50485388071396       -0.28514678497663
H           -0.00408626116348        0.15291797811214        1.83761151036713
H           -0.87481840118059       -0.89643386936861        0.71338667053070
H            0.89218045099532       -0.89764778091271        0.73485719816586
H            0.04737365861963        1.04865954230025       -2.36520268372639
H            0.92390460168975       -0.36373231343087       -1.76687349904550
H           -0.84389130752226       -0.36347830562237       -1.78839665218120
H           -2.81656177822507        0.50768503709567       -0.35347078859717
H           -5.37742663574317        4.25838185949347       -0.68644408172052
H           -7.76938239038081        3.82479028996896       -0.90257245710845
H           -4.70621449965195        0.19736242998299        0.55489906444125
H           -5.93801524254981       -1.90793087005414       -0.36083316861838
H           -7.57706737713123       -2.56476213175964       -0.42885413506813
H           -7.05683254138838       -1.36010031077150       -1.61346743129260
H           -7.96411838403932       -1.85606478002992        2.00039555451061
H           -7.69452283702542       -0.17194283820508        2.46684868381363
H           -6.32061780512395       -1.20638853415647        2.06614147267953
H           -9.98769572140317       -1.94064210172991        0.32395691567630
H          -12.04578069475695       -0.49458431028559       -2.81015522258127
H          -13.80803595562820       -0.11936802674002       -4.48328630821792
H          -16.18718736219237       -0.28271922288046       -3.84042758644793
H          -16.78798836851517       -0.81670357881859       -1.50529351582543
H          -15.02898024688267       -1.17418088529799        0.17444129795646
H          -13.60192232059734       -3.42534781857505       -0.53265026622608
H          -13.87981210858302       -5.11359802372475        1.23683818277319
H          -13.00477291298682       -4.69829377012697        3.50130599111264
H          -12.54669375711037       -2.30884092708572        5.09016240305642
H          -11.17372551557824       -3.36479210854832        4.78010092332064
H          -11.05766804603654       -1.63511868997033        4.42213575208275
H          -11.60589315422839       -0.86683218370295        2.24733175411903
H          -12.24334479773361        1.48389324558815       -0.91193656808558
H          -10.19530208716065        2.84899663469752       -0.98315944110546
H           -3.67852543636376        4.63380929429024        0.50939433843939
H           -1.29495096792432        5.12905972930571        0.66928180088721
H            5.44063387412509        4.25916745260038       -0.52612925840851
H            7.83536349006247        3.82069722903335       -0.68017371408118
H           10.96902498547738       -2.09908180961850       -1.97665294104933
