  73
  -118.832665506900       0.217967907414838      !
 O          4.9869696416        1.2706639043       -1.1135761002
 C          5.2211962627        0.2955623193       -0.3489204773
 C          6.5589123832       -0.1584039911       -0.0458140664
 C          7.6799526598        0.4717710182       -0.6119826792
 C          8.9545299982        0.0310684164       -0.3166720536
 C          9.1507891181       -1.0434649631        0.5374250928
 C          8.0542678692       -1.6840060162        1.1054647266
 C          6.7708034196       -1.2502480612        0.8190778354
 O          5.7431587797       -1.9294127466        1.4069163049
 C          4.4696488325       -1.5407041522        1.1422546330
 C          3.4488492683       -2.2548785156        1.7472034696
 C          2.1192984664       -1.9136549237        1.5221483849
 C          1.8012201430       -0.8390950397        0.6916469739
 C          0.4048140920       -0.4690928295        0.4361396271
 C         -0.5742597984       -1.4477513240        0.2837271896
 C         -1.8927048660       -1.0940389416        0.0196927573
 N         -2.8572475314       -2.0935664842       -0.1627774665
 C         -2.7394905091       -3.1752236288       -1.0142115651
 C         -1.7107810635       -3.5070785336       -1.8849605593
 C         -1.8583752988       -4.6486689349       -2.6502885184
 C         -3.0017335156       -5.4390772995       -2.5645533116
 C         -4.0402462591       -5.0990350481       -1.7180018676
 C         -3.9146494129       -3.9580074498       -0.9390576656
 C         -4.7774464219       -3.3098699130        0.0112561453
 C         -6.0367887563       -3.6037459415        0.5132232357
 C         -6.5852246321       -2.7601775742        1.4611643546
 C         -5.8857422450       -1.6473327450        1.9207972668
 C         -4.6296942507       -1.3362507242        1.4357588377
 C         -4.0855230777       -2.1624252358        0.4631577043
 C         -2.2511920619        0.2453563032       -0.0890031408
 C         -1.2785659540        1.2270201934        0.0741607438
 N         -1.6186479073        2.5788532407       -0.0544474554
 C         -0.9512235295        3.4980003578       -0.8422206417
 C          0.1321360967        3.3149180061       -1.6906823783
 C          0.5974076761        4.4137759318       -2.3882936782
 C         -0.0035072140        5.6633025400       -2.2598590933
 C         -1.1005736551        5.8453597291       -1.4376929751
 C         -1.5829010806        4.7574640247       -0.7254097167
 C         -2.6821204391        4.5808171370        0.1855933279
 C         -3.6404541176        5.4394858789        0.7023436398
 C         -4.5638550849        4.9376767728        1.6013275982
 C         -4.5261561307        3.6036803707        1.9977687093
 C         -3.5787763949        2.7307200831        1.4969952332
 C         -2.6672296862        3.2205122460        0.5728195215
 C          0.0388664902        0.8705663123        0.3375009777
 C          2.8236826285       -0.1161320021        0.0881308584
 C          4.1718929540       -0.4552116711        0.2916711284
 H          7.5107058944        1.3059357264       -1.2739248599
 H          9.8039107762        0.5337358510       -0.7554306016
 H         10.1470178838       -1.3881285618        0.7658607648
 H          8.1776553015       -2.5253843868        1.7692034528
 H          3.7086584285       -3.0736019174        2.3994117683
 H          1.3394781503       -2.4662159042        2.0217585835
 H         -0.3115661873       -2.4909281872        0.3658101868
 H         -0.8282537669       -2.8920402180       -1.9724918292
 H         -1.0703659703       -4.9311186435       -3.3320618880
 H         -3.0783313643       -6.3244337379       -3.1773885400
 H         -4.9330877472       -5.7029165426       -1.6641988669
 H         -6.5720287181       -4.4764456610        0.1715309737
 H         -7.5656308844       -2.9694890249        1.8616886073
 H         -6.3316232068       -1.0166158140        2.6752716231
 H         -4.0843060453       -0.4866624610        1.8158740590
 H         -3.2649528425        0.5184517772       -0.3387179808
 H          0.5938903442        2.3476664457       -1.8137429140
 H          1.4447356488        4.2981694215       -3.0466887746
 H          0.3905304439        6.4984859085       -2.8189027714
 H         -1.5754814606        6.8106939449       -1.3510051082
 H         -3.6587095289        6.4784527877        0.4109055619
 H         -5.3194504070        5.5894652106        2.0130037840
 H         -5.2485443743        3.2440240809        2.7150034386
 H         -3.5416758666        1.7053144824        1.8296236185
 H          0.7758987023        1.6416974637        0.4974725183
 H          2.6137543015        0.7025270682       -0.5812341092
  73
  -118.832625403200       0.208911414864786      !
 O          4.8202278778        1.5867345989        1.4506870464
 C          5.1406142372        0.4694794590        0.9609974342
 C          6.5072562184        0.0065172339        0.8937263590
 C          7.5616160368        0.7972285011        1.3813018893
 C          8.8650878746        0.3488114174        1.3078059459
 C          9.1565874046       -0.8904527939        0.7581567803
 C          8.1272304751       -1.6907103314        0.2732866468
 C          6.8157913010       -1.2510728126        0.3381580739
 O          5.8576733273       -2.0885862322       -0.1557262013
 C          4.5614853109       -1.6876869417       -0.1209807340
 C          3.6142328462       -2.5525116150       -0.6440081496
 C          2.2681467828       -2.2026881855       -0.6543149843
 C          1.8571780701       -0.9723114756       -0.1407923618
 C          0.4449993141       -0.5768174921       -0.1690286346
 C         -0.5692322382       -1.5124482153        0.0243088534
 C         -1.9038438678       -1.1263881432       -0.0190486711
 N         -2.9131295457       -2.0777063477        0.1843673370
 C         -3.9958552647       -2.2948223479       -0.6430562970
 C         -4.3067018380       -1.7087997510       -1.8615451567
 C         -5.4507502096       -2.1331838931       -2.5099549180
 C         -6.2655003971       -3.1240630403       -1.9681464276
 C         -5.9468575336       -3.7309138117       -0.7675916805
 C         -4.8030608616       -3.3202869036       -0.0985906609
 C         -4.1675442515       -3.7325507630        1.1236451630
 C         -4.4845078471       -4.6708318157        2.0950548750
 C         -3.6439757078       -4.8041362157        3.1844186663
 C         -2.5088137233       -4.0082007008        3.3167473038
 C         -2.1726015607       -3.0660470367        2.3627273318
 C         -3.0018031194       -2.9430242530        1.2566519991
 C         -2.2455266823        0.2025203945       -0.2460378074
 C         -1.2365561085        1.1411846169       -0.4363742187
 N         -1.5565165471        2.4896680773       -0.6320860031
 C         -0.9966693436        3.5463975763        0.0610413174
 C         -0.0742511486        3.5337392451        1.0984383283
 C          0.3067462697        4.7485371836        1.6367740975
 C         -0.2224769470        5.9482799213        1.1682394589
 C         -1.1623534699        5.9649720405        0.1537155101
 C         -1.5576126135        4.7580333302       -0.4036329278
 C         -2.4975864118        4.4044614569       -1.4337695744
 C         -3.3272716948        5.1441220839       -2.2626070436
 C         -4.1069288352        4.4742843343       -3.1880033295
 C         -4.0526354286        3.0878017866       -3.3013172546
 C         -3.2321133186        2.3306112833       -2.4865053309
 C         -2.4663018758        2.9941013202       -1.5386420485
 C          0.0968165960        0.7503918396       -0.4071977098
 C          2.8053155026       -0.1060661314        0.3927858135
 C          4.1687694419       -0.4436535684        0.4156900241
 H          7.3186076128        1.7582470068        1.8058229115
 H          9.6623873019        0.9740267546        1.6820493122
 H         10.1754054865       -1.2400236384        0.7020824443
 H          8.3251663868       -2.6597792145       -0.1572646270
 H          3.9455962156       -3.4938393029       -1.0528462056
 H          1.5518849012       -2.8759830545       -1.0975759835
 H         -0.3237770099       -2.5466927657        0.2091441289
 H         -3.6667400382       -0.9582732618       -2.2990808900
 H         -5.7154938353       -1.6904147790       -3.4584792106
 H         -7.1525835204       -3.4280213291       -2.5030085607
 H         -6.5697172768       -4.5117374227       -0.3586246329
 H         -5.3716985425       -5.2782667884        2.0007883337
 H         -3.8718674456       -5.5296070137        3.9507148989
 H         -1.8786883032       -4.1268516587        4.1853332099
 H         -1.3001826803       -2.4417545946        2.4819893349
 H         -3.2808915954        0.5068360549       -0.2346342566
 H          0.3277281441        2.6092806328        1.4829435812
 H          1.0297609419        4.7650693577        2.4377841107
 H          0.1023463792        6.8772441229        1.6118509633
 H         -1.5834608313        6.8945466597       -0.1977291184
 H         -3.3565466827        6.2204186848       -2.1884656593
 H         -4.7602732909        5.0321155722       -3.8417090616
 H         -4.6603759370        2.5932865259       -4.0441860825
 H         -3.1798590951        1.2590055124       -2.5980317128
 H          0.8659933022        1.4805975766       -0.6033424026
 H          2.5228136498        0.8387333665        0.8283800434
  73
  -118.832353021000       0.156597194894568      !
 O          5.0719995814        1.1725749116       -0.9438147500
 C          5.2502740909        0.2563992053       -0.0960012269
 C          6.5627993143       -0.1622790410        0.3396212695
 C          7.7211000624        0.4442813714       -0.1743745284
 C          8.9709436833        0.0404568434        0.2512389882
 C          9.1054781763       -0.9719936467        1.1889709302
 C          7.9714235524       -1.5880846250        1.7081601632
 C          6.7121697319       -1.1908942865        1.2908222696
 O          5.6451461653       -1.8401620815        1.8410456546
 C          4.3940589482       -1.4758120277        1.4615712414
 C          3.3324130935       -2.1502235019        2.0416288690
 C          2.0223902089       -1.8291458054        1.7022308729
 C          1.7635936610       -0.8155303120        0.7788817737
 C          0.3875336471       -0.4580599490        0.4187146060
 C         -0.5939817466       -1.4384098871        0.2951064343
 C         -1.8976934104       -1.0943780115       -0.0426230067
 N         -2.8761714985       -2.0897156528       -0.1540297849
 C         -3.7446813178       -2.2603962644       -1.2140234170
 C         -3.8368717992       -1.5546242331       -2.4055385038
 C         -4.7937242197       -1.9547836452       -3.3193894182
 C         -5.6343655101       -3.0354945340       -3.0659530363
 C         -5.5292598074       -3.7586367387       -1.8925566372
 C         -4.5770224412       -3.3750749288       -0.9596584441
 C         -4.1850185689       -3.8938754871        0.3229108251
 C         -4.6356946016       -4.9477053487        1.1045169395
 C         -4.0368430833       -5.1645237522        2.3312945085
 C         -3.0145633014       -4.3357435179        2.7866918493
 C         -2.5499778620       -3.2790768356        2.0263658792
 C         -3.1291533569       -3.0732961698        0.7819338793
 C         -2.2324929546        0.2346583675       -0.2799424717
 C         -1.2536132883        1.2166786730       -0.1663007156
 N         -1.5774123089        2.5567612232       -0.4079125192
 C         -0.8627222171        3.4202009635       -1.2161006110
 C          0.2569452512        3.1756147327       -1.9995565481
 C          0.7640896222        4.2242206745       -2.7435832569
 C          0.1699452324        5.4835247750       -2.7229247887
 C         -0.9613247006        5.7256131542       -1.9653289813
 C         -1.4866432637        4.6888777754       -1.2084127710
 C         -2.6290550365        4.5773007493       -0.3413445771
 C         -3.6014896885        5.4740368091        0.0746479907
 C         -4.5717474296        5.0356890884        0.9570833973
 C         -4.5685415640        3.7277878151        1.4343564433
 C         -3.6086427034        2.8164461729        1.0352547723
 C         -2.6474411713        3.2435594865        0.1295119955
 C          0.0443300761        0.8722818543        0.1909157306
 C          2.8276591262       -0.1367199794        0.1956512636
 C          4.1576369879       -0.4532212198        0.5182603181
 H          7.5999177184        1.2298307052       -0.9031355651
 H          9.8493565449        0.5219824580       -0.1528044649
 H         10.0824606423       -1.2875176882        1.5194204941
 H          8.0468833049       -2.3803422222        2.4362626238
 H          3.5450579050       -2.9221744920        2.7641180930
 H          1.2104668393       -2.3497054234        2.1846473679
 H         -0.3366803979       -2.4780947537        0.4246242180
 H         -3.1753144246       -0.7300926397       -2.6236130678
 H         -4.8879151452       -1.4189927518       -4.2520278261
 H         -6.3724055889       -3.3143578790       -3.8029715855
 H         -6.1706261466       -4.6059422002       -1.7033415205
 H         -5.4394146004       -5.5801406029        0.7598563929
 H         -4.3698634625       -5.9817249023        2.9530802046
 H         -2.5773922863       -4.5201918613        3.7565819222
 H         -1.7717265889       -2.6293235560        2.3967483256
 H         -3.2417742744        0.5005937199       -0.5529529786
 H          0.7145233474        2.1992863146       -2.0383628997
 H          1.6409107085        4.0617209544       -3.3517047273
 H          0.5994653743        6.2793026130       -3.3127433634
 H         -1.4291924614        6.6981643986       -1.9612718610
 H         -3.5936863200        6.4933744933       -0.2798144756
 H         -5.3394435849        5.7173870603        1.2909014376
 H         -5.3291114422        3.4189679310        2.1356484380
 H         -3.6026566383        1.8116785729        1.4295172841
 H          0.7817998454        1.6480437907        0.3237099778
 H          2.6660454465        0.6309307442       -0.5437734884
  73
  -118.832338199400       0.154160263008363      !
 O          4.9428213491        1.3457075619       -1.0186782592
 C          5.1881213182        0.3339304446       -0.3067954155
 C          6.5274862487       -0.1547627552       -0.0738673661
 C          7.6373303676        0.4761325762       -0.6607482477
 C          8.9128655372       -0.0042645393       -0.4412793253
 C          9.1206754469       -1.1197369812        0.3556538279
 C          8.0353567655       -1.7596359057        0.9455830129
 C          6.7512153931       -1.2859155722        0.7359130744
 O          5.7346152571       -1.9664016201        1.3417333973
 C          4.4587666895       -1.5519533787        1.1334774209
 C          3.4468804129       -2.2753726413        1.7426134517
 C          2.1148627525       -1.9183130255        1.5600124387
 C          1.7848703843       -0.8185571429        0.7677056196
 C          0.3870933804       -0.4508301018        0.5180651842
 C         -0.5845984769       -1.4336579666        0.3455852732
 C         -1.8982035084       -1.0834059631        0.0568467131
 N         -2.8555747848       -2.0896839074       -0.1346366648
 C         -2.7305181293       -3.1544940142       -1.0043750806
 C         -1.7082275841       -3.4486129252       -1.8958436449
 C         -1.8471707848       -4.5759559049       -2.6832842552
 C         -2.9750598103       -5.3886257884       -2.5967240257
 C         -4.0046994075       -5.0887256595       -1.7243603182
 C         -3.8879985996       -3.9624697332       -0.9226484338
 C         -4.7449516333       -3.3494712473        0.0561406162
 C         -5.9845343159       -3.6810254548        0.5831424783
 C         -6.5300920626       -2.8647244870        1.5564513474
 C         -5.8485385776       -1.7400318659        2.0145310119
 C         -4.6115441351       -1.3918046091        1.5061205344
 C         -4.0691584180       -2.1938114327        0.5126130434
 C         -2.2588332650        0.2527454511       -0.0742355192
 C         -1.2947224466        1.2402704558        0.1097932773
 N         -1.6272030608        2.5892423106       -0.0499338544
 C         -0.8891574519        3.5112058552       -0.7717011276
 C          0.2628255327        3.3325083628       -1.5260386221
 C          0.7974452371        4.4375141025       -2.1617837614
 C          0.1966146117        5.6901314176       -2.0696496318
 C         -0.9731680591        5.8665776398       -1.3534739443
 C         -1.5246647733        4.7720765597       -0.7041317504
 C         -2.7060835754        4.5929438106        0.0965085264
 C         -3.7105096284        5.4523248842        0.5150068067
 C         -4.7199325729        4.9509712388        1.3162982972
 C         -4.7204069363        3.6173445348        1.7150134144
 C         -3.7279658327        2.7438724832        1.3109910055
 C         -2.7297938971        3.2315419013        0.4794448907
 C          0.0144941037        0.8868525127        0.4185540611
 C          2.7997141085       -0.0787017794        0.1713789635
 C          4.1495090981       -0.4323576357        0.3325815270
 H          7.4589609678        1.3416286365       -1.2787293896
 H          9.7539164746        0.4991044734       -0.8950291940
 H         10.1173976825       -1.4964680310        0.5233468351
 H          8.1680402800       -2.6315063038        1.5668532609
 H          3.7154104430       -3.1172879251        2.3609258226
 H          1.3433021440       -2.4823544832        2.0596311735
 H         -0.3202947914       -2.4765683489        0.4269915342
 H         -0.8384018374       -2.8150036131       -1.9801199909
 H         -1.0655196232       -4.8292849364       -3.3835619405
 H         -3.0458635585       -6.2611414347       -3.2285241087
 H         -4.8837521445       -5.7124792146       -1.6681600287
 H         -6.5064092684       -4.5620361556        0.2419608658
 H         -7.4944588647       -3.1051335936        1.9779098475
 H         -6.2932438762       -1.1306718172        2.7870691072
 H         -4.0771881784       -0.5338320686        1.8842782244
 H         -3.2660020032        0.5156135168       -0.3586265182
 H          0.7267818099        2.3641573767       -1.6286177890
 H          1.7005108990        4.3231959185       -2.7414673073
 H          0.6471013725        6.5308506992       -2.5751436962
 H         -1.4512483152        6.8327849018       -1.2995755173
 H         -3.6990507855        6.4909470865        0.2219696662
 H         -5.5142906410        5.6021364321        1.6485207198
 H         -5.5105715666        3.2567696055        2.3564242866
 H         -3.7282193207        1.7192734172        1.6473932820
 H          0.7419984192        1.6601415162        0.6077634304
 H          2.5824528787        0.7621581853       -0.4672590431
  73
  -118.831994839700       0.107195178062893      !
 O          4.9552725294        0.9980053518       -1.3580737546
 C          5.1801659790        0.1140773359       -0.4873233042
 C          6.5031779325       -0.4041266786       -0.2214371511
 C          7.6118810022        0.0335853348       -0.9650362267
 C          8.8720993003       -0.4664210405       -0.7031944857
 C          9.0646961502       -1.4125675115        0.2917098414
 C          7.9786948049       -1.8665635421        1.0330906141
 C          6.7094291765       -1.3747217880        0.7785441161
 O          5.6890854082       -1.8815314556        1.5291903342
 C          4.4232790328       -1.4567927785        1.2793875840
 C          3.4046502720       -2.0339883115        2.0185110233
 C          2.0816839922       -1.6605040969        1.8053860926
 C          1.7758300553       -0.6788436489        0.8636957803
 C          0.3813751644       -0.3166185264        0.5821917135
 C         -0.5724828473       -1.3173455796        0.4279679294
 C         -1.8835084834       -0.9997401152        0.0900083235
 N         -2.7961888167       -2.0367547451       -0.1406137111
 C         -2.5532660529       -3.1252408214       -0.9575686869
 C         -1.4513949902       -3.4023935189       -1.7551544671
 C         -1.4702056861       -4.5689515124       -2.4961687061
 C         -2.5595263137       -5.4359003284       -2.4594838887
 C         -3.6716706057       -5.1496636364       -1.6899262491
 C         -3.6749026699       -3.9850717378       -0.9357660196
 C         -4.6365873995       -3.3782779567       -0.0555517065
 C         -5.8999675596       -3.7517526301        0.3781511856
 C         -6.5617994159       -2.9318687864        1.2730721543
 C         -5.9716823591       -1.7619984628        1.7445281203
 C         -4.7138908558       -1.3702898078        1.3261437832
 C         -4.0537357254       -2.1762169700        0.4099999554
 C         -2.2640413081        0.3291038428       -0.0582998873
 C         -1.3187971941        1.3352863479        0.1255976206
 N         -1.6872978363        2.6767566877       -0.0270688071
 C         -1.0018282953        3.6189060176       -0.7719812010
 C          0.1240553141        3.4698687959       -1.5704339738
 C          0.6023567929        4.5885084774       -2.2268428021
 C         -0.0266734149        5.8251110594       -2.1084492106
 C         -1.1677785316        5.9725516061       -1.3413985853
 C         -1.6641206530        4.8640145229       -0.6717222885
 C         -2.8033717427        4.6543318432        0.1808866812
 C         -3.8047702100        5.4879777501        0.6554107704
 C         -4.7605831762        4.9589521292        1.5032002283
 C         -4.7121112369        3.6230545848        1.8919050761
 C         -3.7224820660        2.7747693622        1.4318358218
 C         -2.7783424498        3.2909165850        0.5558197774
 C         -0.0011490168        1.0121136183        0.4335248198
 C          2.7962031715       -0.0758473736        0.1401858841
 C          4.1344286138       -0.4705065297        0.3117872710
 H          7.4461752662        0.7708459320       -1.7343274349
 H          9.7137324899       -0.1088547505       -1.2779542733
 H         10.0495878714       -1.8022848923        0.4956087908
 H          8.0974691399       -2.6106913583        1.8050218032
 H          3.6602457557       -2.7759625502        2.7582852861
 H          1.2979258387       -2.1146794372        2.3909312489
 H         -0.2911268013       -2.3510870856        0.5562401654
 H         -0.6098731269       -2.7284505802       -1.8060284136
 H         -0.6223739817       -4.8099316465       -3.1195739092
 H         -2.5348904692       -6.3389743893       -3.0504561249
 H         -4.5223657154       -5.8137928505       -1.6759608022
 H         -6.3503193030       -4.6674105990        0.0263063567
 H         -7.5463575789       -3.2043892945        1.6220615119
 H         -6.5061518498       -1.1498567036        2.4555434099
 H         -4.2566750964       -0.4732971079        1.7139499885
 H         -3.2708624158        0.5766202418       -0.3578675281
 H          0.6095306011        2.5137273529       -1.6879297478
 H          1.4826836323        4.4985677618       -2.8446469383
 H          0.3799642075        6.6769010528       -2.6322993966
 H         -1.6657162858        6.9270609365       -1.2641115130
 H         -3.8311619151        6.5287160421        0.3708955818
 H         -5.5505456365        5.5904063679        1.8808290928
 H         -5.4602104031        3.2420404719        2.5708760950
 H         -3.6787798598        1.7481885552        1.7603647702
 H          0.7208433093        1.7981018642        0.5907483941
 H          2.5857806181        0.6702862110       -0.6094001856
  73
  -118.831886010300       9.553460684460320E-002 !
 O          5.0736471423        1.4341277422       -0.8863999462
 C          5.2669634394        0.3964231204       -0.1966739884
 C          6.5800071631       -0.0219767076        0.2371527820
 C          7.7217416847        0.7326772571       -0.0823148724
 C          8.9698243424        0.3322087369        0.3507130910
 C          9.1212595858       -0.8231892648        1.1027811663
 C          8.0052444831       -1.5877653919        1.4255324634
 C          6.7475805634       -1.1947254474        1.0000139668
 O          5.6982770758       -1.9909681217        1.3568821605
 C          4.4456162997       -1.6170366334        0.9962484752
 C          3.3995255998       -2.4232927650        1.4140025998
 C          2.0859376168       -2.0866519073        1.1100488682
 C          1.8029295180       -0.9343318795        0.3743904720
 C          0.4128633773       -0.5440125622        0.1194675884
 C         -0.5889905574       -1.5032205615       -0.0265608349
 C         -1.9168715283       -1.1222646214       -0.1647362774
 N         -2.9152180091       -2.1062064194       -0.2531514530
 C         -2.9838348063       -3.1102856891       -1.1946906295
 C         -2.1627803788       -3.3474113997       -2.2879286465
 C         -2.4762303605       -4.4173720048       -3.1048022423
 C         -3.5778575335       -5.2300063344       -2.8469488777
 C         -4.4043424292       -4.9908905974       -1.7646217289
 C         -4.1116642020       -3.9220996941       -0.9301195922
 C         -4.7379636313       -3.3786473291        0.2451060747
 C         -5.8405996097       -3.7470528530        1.0021027415
 C         -6.1534309521       -3.0005229539        2.1230617600
 C         -5.3780194482       -1.9059151948        2.4979502906
 C         -4.2756760807       -1.5194743881        1.7597689213
 C         -3.9670553323       -2.2554630358        0.6250761480
 C         -2.2681561712        0.2217769632       -0.2050516653
 C         -1.2685254446        1.1845181406       -0.1022301278
 N         -1.5878757823        2.5444034376       -0.1916539147
 C         -0.9537959955        3.4538094205       -1.0174592534
 C          0.0637865377        3.2512622306       -1.9396833805
 C          0.5043357888        4.3435749411       -2.6633159218
 C         -0.0582166972        5.6052959839       -2.4887455045
 C         -1.0883593282        5.8079775584       -1.5884121874
 C         -1.5427384830        4.7276113091       -0.8469057200
 C         -2.5749815968        4.5711644666        0.1428392185
 C         -3.4594336875        5.4531763760        0.7447680832
 C         -4.3223990500        4.9691507256        1.7110686548
 C         -4.3008602447        3.6280549416        2.0841422372
 C         -3.4272329310        2.7310320764        1.4983554229
 C         -2.5712031898        3.2064033547        0.5151011803
 C          0.0555868276        0.8021059050        0.0767727582
 C          2.8546139870       -0.1375122297       -0.0683205968
 C          4.1887642401       -0.4566725237        0.2368514012
 H          7.5887210751        1.6289454089       -0.6669350421
 H          9.8344588961        0.9286778893        0.0991994709
 H         10.0971292445       -1.1348445254        1.4403852610
 H          8.0927213780       -2.4918446179        2.0075689455
 H          3.6266686191       -3.3033603549        1.9944674243
 H          1.2874823513       -2.7046293223        1.4881393401
 H         -0.3436295021       -2.5538661645       -0.0215881039
 H         -1.3132607624       -2.7145482143       -2.4959728544
 H         -1.8548483797       -4.6268091574       -3.9624846968
 H         -3.7896947047       -6.0561001871       -3.5089399229
 H         -5.2625870241       -5.6167056049       -1.5729688882
 H         -6.4340752710       -4.6046580884        0.7242292657
 H         -7.0059745117       -3.2733184151        2.7265853717
 H         -5.6401019334       -1.3520090792        3.3869798076
 H         -3.6637961858       -0.6841312854        2.0650455391
 H         -3.2981439640        0.5102532283       -0.3486588234
 H          0.4940099083        2.2743994582       -2.0976152455
 H          1.3010323657        4.2133096385       -3.3796569672
 H          0.3129984567        6.4340482873       -3.0723841849
 H         -1.5335653535        6.7833856125       -1.4646334707
 H         -3.4658313319        6.4962409323        0.4677330561
 H         -5.0172574852        5.6402187813        2.1930380917
 H         -4.9768214080        3.2815765507        2.8514564368
 H         -3.4056937724        1.6982839435        1.8095718936
 H          0.8056770165        1.5629656037        0.2239500473
 H          2.6834389007        0.7407307888       -0.6695898304
  73
  -118.831440655500       5.963343490994795E-002 !
 O          5.0900797265        1.3039462235       -0.7523978355
 C          5.2632118494        0.3068080932       -0.0006847695
 C          6.5742401200       -0.1637727499        0.3841937742
 C          7.7349716228        0.4757872278       -0.0826016400
 C          8.9836625524        0.0195297765        0.2902807390
 C          9.1145931262       -1.0793949567        1.1255567149
 C          7.9780160195       -1.7290321472        1.5961204899
 C          6.7197617863       -1.2797851055        1.2317207528
 O          5.6503083844       -1.9669017950        1.7276198587
 C          4.4000680463       -1.5618296455        1.3854588908
 C          3.3364843461       -2.2826798925        1.9018770148
 C          2.0277452663       -1.9282421257        1.5914612890
 C          1.7737445976       -0.8351332836        0.7627731857
 C          0.3966876597       -0.4595022855        0.4184295637
 C         -0.5612856870       -1.4395820141        0.1736526498
 C         -1.8597340668       -1.0877950746       -0.1775142482
 N         -2.8074528846       -2.0843360205       -0.4400385307
 C         -2.6212821812       -3.1716007196       -1.2721062739
 C         -1.5285928717       -3.5057867107       -2.0603730615
 C         -1.6160060952       -4.6506049490       -2.8301870933
 C         -2.7618150250       -5.4419897143       -2.8295644476
 C         -3.8633359935       -5.0984917225       -2.0682925784
 C         -3.7988916845       -3.9540922406       -1.2868634038
 C         -4.7352990334       -3.3000392555       -0.4133356512
 C         -6.0326914689       -3.5904568731       -0.0177842585
 C         -6.6584922498       -2.7396390790        0.8740445286
 C         -5.9990163917       -1.6235760809        1.3823786963
 C         -4.7058964965       -1.3145645801        1.0038503428
 C         -4.0825754169       -2.1491766151        0.0863690199
 C         -2.2208966553        0.2521856610       -0.2651791060
 C         -1.2712977137        1.2350536905       -0.0082167079
 N         -1.6303031575        2.5858574992       -0.0981935125
 C         -2.2976123898        3.1726733420       -1.1547496521
 C         -2.7078810837        2.6179429851       -2.3593223440
 C         -3.3420927720        3.4454900700       -3.2668897563
 C         -3.5574253530        4.7937521463       -2.9937959059
 C         -3.1268115527        5.3576924642       -1.8068982668
 C         -2.4881514691        4.5469464758       -0.8805474328
 C         -1.9041569287        4.7900389419        0.4112453150
 C         -1.7939147626        5.9176226107        1.2111607670
 C         -1.1728099259        5.7977446088        2.4408554095
 C         -0.6805679284        4.5711573858        2.8793232720
 C         -0.7803730321        3.4332066530        2.1006697723
 C         -1.3807556204        3.5532569179        0.8547403799
 C          0.0319064603        0.8810716382        0.3216329473
 C          2.8382444369       -0.1037814038        0.2496916779
 C          4.1674134879       -0.4542153784        0.5429786820
 H          7.6167057060        1.3290608641       -0.7311988817
 H          9.8638347060        0.5295334378       -0.0727065079
 H         10.0906764737       -1.4357357542        1.4148479966
 H          8.0506478038       -2.5885392400        2.2439461626
 H          3.5461506405       -3.1176622121        2.5514936255
 H          1.2123053097       -2.4867727281        2.0230670933
 H         -0.2971652734       -2.4825114183        0.2518252055
 H         -0.6424333721       -2.8901913116       -2.0837202319
 H         -0.7776670521       -4.9344045216       -3.4484020812
 H         -2.7900660118       -6.3303013994       -3.4423542218
 H         -4.7579193724       -5.7021478210       -2.0822782317
 H         -6.5379233253       -4.4651604999       -0.3979034779
 H         -7.6695220671       -2.9453859364        1.1916888494
 H         -6.5068181783       -0.9867574413        2.0911993747
 H         -4.1975750623       -0.4592436032        1.4222491657
 H         -3.2286906933        0.5275063968       -0.5343699792
 H         -2.5251837135        1.5797379312       -2.5910773573
 H         -3.6710280620        3.0380670162       -4.2109916574
 H         -4.0571224131        5.4074270309       -3.7279543481
 H         -3.2777959917        6.4069783089       -1.6045651838
 H         -2.1884086375        6.8656177643        0.8787051186
 H         -1.0742464315        6.6640026282        3.0774746192
 H         -0.2128975833        4.5058993491        3.8501970113
 H         -0.4094569300        2.4840903321        2.4563688185
 H          0.7645396234        1.6528739406        0.4974822065
 H          2.6779700523        0.7283997275       -0.4168296760
