69
 energy: -106.043252000343 gnorm: 0.000024888891 xtb: 6.7.1 (edcfbbe)
C            5.71674131837770       -4.63789469409998        0.32712519631298
C            4.73796876433041       -5.44107680635071        0.88799581898230
C            3.40262861419170       -5.10905573422969        0.75219026828002
C            3.02416806434065       -3.96455819886211        0.05451101399899
C            1.60659562805261       -3.59574734964859       -0.08157454892028
C            0.62217444996665       -4.55942146100238       -0.29933175776249
C           -0.70799597760979       -4.19537464939115       -0.42351228299512
C           -1.08345353256251       -2.86807819709175       -0.33524814917866
C           -0.11156451404920       -1.89359312113562       -0.12256025195454
C           -0.46698116514758       -0.47694909714367       -0.03947126249034
N           -1.75075303811034       -0.13370018038545       -0.05085128720122
C           -2.00353971981826        1.17053766600817        0.03012890005730
C           -3.40297149926029        1.59696929747094        0.01673021895986
C           -3.72487211531700        2.95274199562876        0.02520677782141
C           -5.05069985233228        3.34056069357300        0.00729436932446
C           -6.05719678787007        2.39048256959485       -0.01677438068341
C           -5.75170426107966        1.02985099272980       -0.02604615689596
C           -6.81985853769351        0.01866456773178       -0.05740636387504
C           -7.97179250939260        0.17499238520731        0.70956907519273
C           -8.97278224009143       -0.77819120761052        0.67782355867061
C           -8.84183063432480       -1.89930224604095       -0.12435673683612
C           -7.70116713768868       -2.06380558160220       -0.89234010788150
C           -6.69660140745461       -1.11483238389597       -0.85763141132739
C           -4.41684225214959        0.64491445763041       -0.00960870370596
N           -1.06559153289724        2.11051490103838        0.11727583330922
C            0.19078033027616        1.67680684049542        0.11142765731698
C            1.27811107494178        2.65173482375037        0.19659004066717
C            1.02034657797761        3.99768831348721        0.44398864071404
C            2.07474689401258        4.88709253616555        0.53219919436966
C            3.37875760368866        4.44959143494236        0.37258291268347
C            3.65276227116120        3.10566292408110        0.11973363881476
C            5.03163823722293        2.62374697401089       -0.05524059970235
C            5.42050679473671        1.39312245319754        0.47065048953993
C            6.71127570095882        0.92971215872063        0.29860819751275
C            7.63487126551430        1.68606640279073       -0.40357507584989
C            7.25947065180670        2.91032063070257       -0.93078791208209
C            5.96950951574723        3.37693805612676       -0.75735972246072
C            2.58918179559528        2.21666316342963        0.03439325215341
N            0.53292328938812        0.39502271676711        0.03573863606213
C            1.22299453504533       -2.26377658558571        0.00539862571984
C            4.01774262293313       -3.16358091504846       -0.50539779549515
C            5.35190865508452       -3.49864117085859       -0.37083882330975
H            6.75932919856196       -4.89910592198380        0.43366505640872
H            5.01701605595216       -6.32901355069084        1.43668273240777
H            2.64599198435285       -5.72984743055780        1.20980890903116
H            0.90414159240169       -5.59834359511466       -0.39090445132827
H           -1.45613428723332       -4.95575713909683       -0.59485855503767
H           -2.11499478066294       -2.56890136711634       -0.43222595640317
H           -2.92790238803898        3.67889971452507        0.04182134872946
H           -5.30536254489407        4.39047702619802        0.00834452882455
H           -7.09073164456481        2.70363021024991       -0.04928661947803
H           -8.07235883895828        1.03900017586231        1.35050018452749
H           -9.85844835000988       -0.64708679027045        1.28258670726164
H           -9.62552443257003       -2.64201460018250       -0.15059496999252
H           -7.59549210514858       -2.93511868668636       -1.52242143741677
H           -5.81577980554487       -1.23934307413686       -1.47046420679732
H           -4.14510187861647       -0.39900186500200        0.00349390629119
H           -0.00036877800749        4.32241834560250        0.56924678459308
H            1.88241029838121        5.93140219083541        0.73139567841472
H            4.19457438349900        5.15200403448450        0.46378365972540
H            4.71081647107689        0.80573353747184        1.03466872213473
H            6.99783341029464       -0.02485633007199        0.71607722548596
H            8.64310835385506        1.32336250165036       -0.53953762234139
H            7.97482375531157        3.50288984749974       -1.48259704855772
H            5.67867192960601        4.32378064577804       -1.18887118862731
H            2.76118500782034        1.17384686007058       -0.18052280754510
H            1.95345672251161       -1.49312382621561        0.19436005629511
H            3.74015985696261       -2.28322924297054       -1.06640497894547
H            6.10976420454141       -2.86893806202350       -0.81437052733188
