69
 energy: -105.962554736480 gnorm: 0.000045137214 xtb: 6.7.1 (edcfbbe)
C            5.78287721439705       -4.53985491283451        0.24983686614764
C            4.84027184506140       -5.34218198851490        0.87074724396685
C            3.49461084724370       -5.04106747018932        0.77002493484358
C            3.06837749546713       -3.92954600421257        0.04696326918835
C            1.63916740775630       -3.59300639196129       -0.04675314543068
C            0.66790297925594       -4.58606578474286       -0.19538768943208
C           -0.67548837162819       -4.24749062797706       -0.26966560197621
C           -1.07817469998463       -2.93170531651777       -0.19999360612687
C           -0.11847552902294       -1.91898450900925       -0.05758000391956
C           -0.48558709319216       -0.53776953476886        0.00876450865525
N           -1.73540159493836       -0.12678236656225       -0.00548371560265
C           -2.05888943207720        1.15171871699152        0.05581849275630
C           -3.42418063388178        1.57744914166890        0.04041195393986
C           -3.74799679034288        2.94175031801131        0.08576412585974
C           -5.06782466313446        3.33623075317381        0.07081618068178
C           -6.08531641863274        2.39645415790512        0.01453117039150
C           -5.78473842485740        1.03237164714062       -0.03257920353423
C           -6.86171572804907        0.03143723615729       -0.09307569022914
C           -8.00704826871756        0.17181469879600        0.68682693387302
C           -9.01756474931383       -0.76991360600985        0.62924051335523
C           -8.90282719377606       -1.86423031512989       -0.21160618585418
C           -7.76888887005962       -2.01288000873013       -0.99266180584175
C           -6.75513246863091       -1.07497040118325       -0.93253388111132
C           -4.45889338824287        0.63425410228996       -0.02118963252865
N           -1.05538487012533        2.09606971288189        0.13130275994536
C            0.18944627885981        1.67557942442397        0.13627290275182
C            1.28274774898914        2.64828986264433        0.20828203683551
C            1.03305896595636        3.99760031665856        0.44399530595042
C            2.09416035451407        4.88038052120644        0.51863083065587
C            3.39478214254749        4.43367660474036        0.35735314938660
C            3.65968083755378        3.08577003834777        0.11510101304289
C            5.03353844684051        2.59192870795126       -0.06533260352909
C            5.41600097002644        1.36033126963068        0.46309600617140
C            6.70148034858515        0.88542109039538        0.28283993797366
C            7.62561022080373        1.63141338755129       -0.42963080240283
C            7.25658865853957        2.85687267345877       -0.95869960692307
C            5.97191833334976        3.33494641556277       -0.77766353860864
C            2.58998233411673        2.20304468839940        0.04327053429674
N            0.51873970140844        0.40160293648136        0.08398696284802
C            1.23486906343202       -2.27045244778272        0.01904342137753
C            4.02600752962423       -3.13026006481438       -0.57450983393169
C            5.37080447579667       -3.43338584905599       -0.47404848261505
H            6.83379521421294       -4.77643376995798        0.32952539070375
H            5.15605115098898       -6.20507720993657        1.43925660713678
H            2.76653151231244       -5.66022487847513        1.27371636386279
H            0.96708277762574       -5.62060866141190       -0.27276868894406
H           -1.41424802103725       -5.02741774739550       -0.38673592456917
H           -2.12145524641417       -2.66173629978527       -0.25580850428420
H           -2.94824859302619        3.66482414700924        0.12944287904996
H           -5.31430403127464        4.38796754416326        0.10055944447733
H           -7.11577806919011        2.71752910805856       -0.01518100781977
H           -8.09481356062982        1.01500780862285        1.35666783311485
H           -9.89818359539529       -0.65100924534847        1.24398065687060
H           -9.69381795297319       -2.59828705352011       -0.25782101253079
H           -7.67568227427880       -2.86308364757524       -1.65297303147744
H           -5.87950353047321       -1.18688247790013       -1.55538168226995
H           -4.20035541345469       -0.41386474636110       -0.03641699327021
H            0.01570435829488        4.33301921751406        0.57114260753378
H            1.90814434474876        5.92729631153354        0.70852440620149
H            4.21489473576401        5.13188690173284        0.43821369890552
H            4.70707349668347        0.78070152964046        1.03604035388759
H            6.98256357808426       -0.07011872350804        0.70135211405705
H            8.62947508812443        1.25961793621228       -0.57227156791281
H            7.97243708196628        3.44133739631272       -1.51821464601283
H            5.68545214190818        4.28201931919885       -1.21140826168152
H            2.75752764950980        1.15729960786936       -0.16377251690562
H            1.95960097923089       -1.48258715820696        0.15744336085391
H            3.71158060351223       -2.27598555553463       -1.15636849915216
H            6.10003558352916       -2.80449887894144       -0.96465477647310
