  69
       -106.04313158
 C          5.7000600379       -4.6904729763        0.1728125670
 C          4.7479819484       -5.4614464731        0.8186053691
 C          3.4110025075       -5.1152804513        0.7537924885
 C          3.0040701913       -3.9887197052        0.0427589481
 C          1.5849630085       -3.6065419061       -0.0207784865
 C          0.5807142689       -4.5666602253       -0.1431985714
 C         -0.7512426579       -4.1930614414       -0.2019216542
 C         -1.1080140465       -2.8593185946       -0.1428938174
 C         -0.1166148368       -1.8879176471       -0.0244968679
 C         -0.4612861995       -0.4670645297        0.0250497750
 N         -1.7446031575       -0.1225073600        0.0095135429
 C         -1.9970542541        1.1831892499        0.0549028139
 C         -3.3971593306        1.6066009598        0.0329845196
 C         -3.7256837178        2.9606622818        0.0357924979
 C         -5.0534985150        3.3412988846        0.0078899429
 C         -6.0551453441        2.3862078309       -0.0231816096
 C         -5.7428412439        1.0271205603       -0.0286983668
 C         -6.8034733025        0.0086002816       -0.0731142798
 C         -7.9682102203        0.1569721118        0.6758303935
 C         -8.9609628279       -0.8042493100        0.6302659947
 C         -8.8088054053       -1.9256823208       -0.1677205318
 C         -7.6551065796       -2.0825377926       -0.9175876764
 C         -6.6589770989       -1.1254079693       -0.8692261442
 C         -4.4062179942        0.6496866956        0.0009345635
 N         -1.0580773152        2.1241642744        0.1101821942
 C          0.1981924129        1.6892818871        0.1123464011
 C          1.2828411020        2.6698722656        0.1610690977
 C          1.0159518465        4.0265323234        0.3291122962
 C          2.0643716509        4.9256621315        0.3787086979
 C          3.3723393047        4.4871933935        0.2590069116
 C          3.6557535161        3.1325648423        0.0869545046
 C          5.0391673507        2.6502171743       -0.0458716159
 C          5.4302174919        1.4557883978        0.5562773514
 C          6.7249694056        0.9907727884        0.4233219079
 C          7.6505043258        1.7093524918       -0.3150596096
 C          7.2731889591        2.8979088827       -0.9173069447
 C          5.9791632224        3.3662157700       -0.7831952747
 C          2.5978822431        2.2336613067        0.0402085937
 N          0.5400569987        0.4054457749        0.0732232317
 C          1.2197484046       -2.2676071227        0.0389368138
 C          3.9708634808       -3.2203812692       -0.6029147990
 C          5.3067492064       -3.5694152703       -0.5389016114
 H          6.7440983818       -4.9624359036        0.2240665567
 H          5.0496454642       -6.3353971307        1.3776998745
 H          2.6768413255       -5.7100803599        1.2776063928
 H          0.8475086081       -5.6113505706       -0.2114315138
 H         -1.5153140877       -4.9508125808       -0.2973951100
 H         -2.1406927711       -2.5522540950       -0.1891329011
 H         -2.9327198345        3.6910610785        0.0564779269
 H         -5.3136032200        4.3898821956        0.0057690403
 H         -7.0897967223        2.6943647364       -0.0651353368
 H         -8.0857197559        1.0213087392        1.3133966500
 H         -9.8573646285       -0.6786333572        1.2201484113
 H         -9.5861985273       -2.6744306860       -0.2050397410
 H         -7.5324638789       -2.9541361784       -1.5441808774
 H         -5.7677660579       -1.2443942605       -1.4679876707
 H         -4.1289329790       -0.3926311368        0.0181896075
 H         -0.0078439232        4.3522497177        0.4224214059
 H          1.8641388646        5.9786073298        0.5148600028
 H          4.1835670785        5.1983403257        0.3175511882
 H          4.7182254646        0.8990138462        1.1477860981
 H          7.0129215026        0.0637616784        0.8980723839
 H          8.6616517391        1.3447963019       -0.4210100676
 H          7.9903466867        3.4611297033       -1.4968842868
 H          5.6872953966        4.2844345756       -1.2721569319
 H          2.7783099460        1.1810795721       -0.1111593551
 H          1.9672940747       -1.4987294909        0.1550984715
 H          3.6698190281       -2.3547076433       -1.1745974841
 H          6.0436976308       -2.9641222319       -1.0468126873
