69
 energy: -106.042592800447 gnorm: 0.000046101790 xtb: 6.7.1 (edcfbbe)
C            0.51022784577621       -8.50617987539531       -0.03059616046117
C            0.97502187327196       -7.46425435373065       -0.81566537013606
C            0.31796351960156       -6.24802456617403       -0.81735526941638
C           -0.82003383280244       -6.05642623374520       -0.03724538061778
C           -1.52061081840300       -4.76278204349994       -0.04423142166979
C           -2.91387601273982       -4.70581329439424       -0.05776453576049
C           -3.57106012839239       -3.48756361838893       -0.07041731442290
C           -2.85330553440402       -2.30717276063161       -0.06624869506367
C           -1.46046582115861       -2.34692354429049       -0.05028587652979
C           -0.68669497478716       -1.10506055261299       -0.04316203372141
N           -1.35284069869274        0.04544282357829       -0.04581401703042
C           -0.61056282072771        1.14894984222342       -0.04180423649124
C           -1.29992785134345        2.43956785957070       -0.04823949176172
C           -0.57046894783272        3.62676194815732       -0.06229244861178
C           -1.23546376069728        4.83768938115557       -0.06712704965209
C           -2.61918416801426        4.87596841999355       -0.05935255744253
C           -3.36378367207168        3.69697399391916       -0.04441056863093
C           -4.83440376047191        3.73486405183396       -0.03105327217408
C           -5.55682073849796        2.85347012459471        0.76998844165016
C           -6.93857989870389        2.89018039781617        0.78717071171970
C           -7.62114031910423        3.80309971063628        0.00062885674686
C           -6.91288981316054        4.68107782287625       -0.80254616893658
C           -5.53073775773697        4.64990977028804       -0.81685170095386
C           -2.69020137502546        2.48184960730512       -0.03878681604050
N            0.71877888559190        1.15063238055336       -0.02734691942783
C            1.30323846539378       -0.04403570112830       -0.02222276750284
C            2.76542408443570       -0.09218752587999        0.00417404423720
C            3.42905849860237       -1.31745294348621        0.01115286129410
C            4.80992232555183       -1.34678220697671        0.04172097842390
C            5.53439289786819       -0.16746540205150        0.06520603866728
C            4.88544865980431        1.06687166128947        0.06022251118824
C            5.65295716465977        2.32152420610420        0.09356785059536
C            6.81705997571250        2.46541994776544       -0.65734076241121
C            7.53504639614730        3.64645199187864       -0.62281885263848
C            7.10505277649403        4.70025559392939        0.16594300155482
C            5.94956252096562        4.56735526258004        0.91769760015682
C            5.22723492210100        3.38933337767857        0.88038065805534
C            3.49663457289363        1.09080902698063        0.02894247149052
N            0.64011944205415       -1.19627074141742       -0.03410893692292
C           -0.80340123125896       -3.57286378357964       -0.04088536438122
C           -1.27996106986405       -7.11139012126358        0.74705783708368
C           -0.61778950469581       -8.32507118122443        0.75191981694290
H            1.02522745251325       -9.45551648561128       -0.02830700134227
H            1.85274257880462       -7.60139227816315       -1.43058982193024
H            0.67491048566747       -5.44317463416319       -1.44326782730400
H           -3.48342709589002       -5.62366966044836       -0.07914262633787
H           -4.65098242091643       -3.46161057334115       -0.08682185401580
H           -3.34941270697834       -1.34984134424452       -0.07695141675355
H            0.50675326827956        3.57913617947971       -0.06985261777007
H           -0.67414837139560        5.76075564053913       -0.07435095781398
H           -3.13008481608659        5.82784255405988       -0.04475276213396
H           -5.02841932513463        2.15031402843923        1.39714170976798
H           -7.48624844526540        2.20506657770146        1.41805692851470
H           -8.70076475246286        3.82999758636117        0.01319905987268
H           -7.44036612483848        5.39214544366352       -1.42179631089530
H           -4.98439058140704        5.32591436288289       -1.45866971804019
H           -3.23496518454117        1.55082691008369       -0.04564455160662
H            2.84957904508156       -2.22665845339826       -0.00514721772915
H            5.32875854561563       -2.29435324480212        0.05163225470456
H            6.61340215664883       -0.20089965655832        0.10885779399244
H            7.14852831629446        1.65318976571615       -1.28806480563702
H            8.43326669287199        3.74626930697187       -1.21490664977049
H            7.66809083864295        5.62148064666467        0.19443559982101
H            5.61135137228517        5.38530415736677        1.53731037446233
H            4.33550008129006        3.28468875822060        1.48104522131685
H            2.96290210307832        2.02793516411541        0.00587384775968
H            0.27490223075512       -3.58060327212056       -0.01164939590881
H           -2.14961100202441       -6.97088008826541        1.37267099029994
H           -0.98203465722516       -9.13300614398556        1.36989306347753
