78
 energy: -129.981109425986 gnorm: 0.000115802936 xtb: 6.7.1 (edcfbbe)
C            0.95632677210588       -6.58090322306037        0.04650538136661
N           -0.05054124616060       -5.55585109475423        0.01763194140583
C           -1.41060841810439       -5.72550949039164       -0.03437359905732
N           -2.06381774864945       -4.58888578306946       -0.05688767050450
C           -1.11840568266484       -3.61889640196085       -0.02594135139263
C           -1.14867083464852       -2.18744604107099       -0.01971939059851
C           -2.34077528495129       -1.40108008144909       -0.05990202988125
C           -3.61596864036463       -1.99827587925885       -0.12347523636355
C           -4.75334420021706       -1.22867791285612       -0.15070690693321
C           -4.66361612767229        0.16495552423432       -0.11616315347841
N           -5.84042699516937        0.95819252156928       -0.13726317884717
C           -6.69253619066755        0.98153242723374        0.95679179458824
C           -6.43424346051328        0.24901715248852        2.11410748963604
C           -7.30705726185799        0.29575044800723        3.18626208836594
C           -8.44828502016620        1.07863682529718        3.13071605526377
C           -8.71220371680740        1.82942503351261        1.99663796510275
C           -7.84366953448847        1.78810114035791        0.91883948493029
O           -8.14980612639513        2.56921478577587       -0.16303557806151
C           -7.29770257838310        2.53665058295806       -1.23399726686345
C           -7.61934118609585        3.32639103242951       -2.32509828823200
C           -6.80784190399005        3.32323726785604       -3.44806957023078
C           -5.68184257314028        2.51724222879408       -3.48011188077675
C           -5.35266968006606        1.72663075465857       -2.39387320182843
C           -6.14434837375962        1.73251046356441       -1.24666085317549
C           -3.40706979694088        0.77484041028223       -0.05895863029626
C           -2.27033163237880        0.00837242501593       -0.03353743598039
N            0.03975784928024       -1.57006508961201        0.01696492138556
C            1.19037153277366       -2.21043361888920        0.05130233987353
C            2.40670208537776       -1.42193552560414        0.07915362496141
C            2.35605638422601       -0.02307897508032        0.02400265481700
C            3.51023856642634        0.72505404803276        0.04208421606284
C            4.75137513362826        0.09192908698569        0.11849369869544
N            5.94112390187078        0.86566059848435        0.13448013149953
C            6.24908655312327        1.65531819938075        1.23448608254903
C            5.45639069799480        1.67244522923588        2.37961671242380
C            5.79198126675126        2.47407658404847        3.45677251772505
C            6.92545932986966        3.26763266405060        3.41566646536010
C            7.73783193489567        3.24759255148652        2.29309870065597
C            7.40969365995689        2.44706310689334        1.21225661798893
O            8.26429507969639        2.45803964039354        0.14139677391512
C            7.95183620134700        1.66493025616344       -0.93125152165089
C            8.82162059770938        1.68558560228399       -2.00819981721151
C            8.55400323229058        0.92210524236342       -3.13331982039182
C            7.40773519394338        0.14756671950951       -3.18005992421505
C            6.53321271616803        0.12180019870687       -2.10757638941919
C            6.79545138166212        0.86701919799866       -0.96050516583001
C            4.81731431352245       -1.29894636373178        0.17704057626351
C            3.65966033882565       -2.04418324319620        0.15511645409383
N            1.31785157555304       -3.56423345375753        0.06502112631724
C            0.15745452251222       -4.21089111379448        0.01651911754606
H            0.78426409060989       -7.25743132450201        0.88591176678993
H            1.92419162702140       -6.09630609237368        0.16068444615068
H            0.94556263961996       -7.15574231318008       -0.88260131825974
H           -1.87220646293589       -6.69200063721845       -0.04796603589367
H           -3.68236668752284       -3.07480852284163       -0.15277383048653
H           -5.72706947257038       -1.69490418678943       -0.20453251103986
H           -5.54184654573196       -0.35420536060948        2.16557331051402
H           -7.08753937990262       -0.28257667725601        4.07025552487338
H           -9.12950946557434        1.11344242649190        3.96586714287212
H           -9.58511005803131        2.45882880255240        1.92703689239159
H           -8.51007970951031        3.93212109336699       -2.27402179783345
H           -7.06229815691717        3.94198951156411       -4.29375601235758
H           -5.05255688670972        2.49788576198451       -4.35629928188280
H           -4.48052420950235        1.09320556489109       -2.42650042846450
H           -3.34331883392523        1.85332237318629       -0.02683112503286
H           -1.29510584768164        0.46663574100076        0.01848335963858
H            1.39006193914602        0.45239638883439       -0.04038381619801
H            3.46707607882073        1.80346551790595       -0.00752530361221
H            4.57667581493407        1.05002528158903        2.42072805342705
H            5.16071415524150        2.47263992317079        4.33175895144860
H            7.18558403331137        3.89529087665772        4.25303983873568
H            8.63435091910602        3.84412038914748        2.23492483597197
H            9.69909773670356        2.30939021624691       -1.94563415410798
H            9.23679651686272        0.94149137589728       -3.96771500184321
H            7.18434073169449       -0.44052784558667       -4.05663969594432
H            5.63594950845774       -0.47456385283997       -2.15466043911828
H            5.78106683958336       -1.78313110818077        0.24226591182852
H            3.69488045910341       -3.12143904312415        0.20112946988830
