78
 energy: -130.047348656429 gnorm: 0.000161002867 xtb: 6.7.1 (edcfbbe)
C            0.99744845417906       -6.56681758506149        0.11470890525696
N           -0.01390219160073       -5.54539530106053        0.05571268261356
C           -1.36548562647721       -5.71073172035332       -0.00237095980781
N           -2.04039680580148       -4.60111832076977       -0.04834979354734
C           -1.09663840859361       -3.60576867259789       -0.02163357163446
C           -1.12844830717168       -2.20405336581173       -0.03976828400248
C           -2.34867792380178       -1.40623243740238       -0.08274748140836
C           -3.59984785788966       -2.01269109688898       -0.21257814559798
C           -4.74601593367160       -1.24549067334136       -0.24614221886246
C           -4.66774358196854        0.14254303851732       -0.14648298109773
N           -5.83951193838000        0.92676308574078       -0.17588266252773
C           -6.81168881305811        0.79633598548035        0.82037154806374
C           -6.66810543461111       -0.07765262265616        1.89161146075540
C           -7.65128991592265       -0.17903710258142        2.86445940690537
C           -8.78903127672187        0.59929960666414        2.79219578457537
C           -8.93354668367453        1.50027728815574        1.74720011113901
C           -7.95507698202610        1.60582457520103        0.77585950798361
O           -8.15710936556479        2.54649110435303       -0.20725042682413
C           -7.19275490111508        2.65997860309393       -1.18133897233771
C           -7.41687187301832        3.59393839605052       -2.17612410242229
C           -6.50727790330296        3.74478772258055       -3.21285798729452
C           -5.38582463972277        2.94084582002358       -3.25444732879888
C           -5.15614352832553        2.00444486908514       -2.25771066913384
C           -6.03973723724502        1.86366891945289       -1.19399005312637
C           -3.42038296503741        0.75238980662577       -0.01615683613838
C           -2.27606142276266       -0.01424838825144        0.01417451011475
N            0.03629986199520       -1.55885284088324       -0.00686011944879
C            1.19306977339251       -2.21763620859489        0.05162473280900
C            2.41480234391718       -1.41116282258620        0.08176434582181
C            2.36271079403236       -0.04020443591669       -0.16962284721293
C            3.51306266046497        0.72030543284985       -0.14773724463574
C            4.74108141862371        0.12467495158286        0.13389743445990
N            5.91932173466055        0.90168438104010        0.15971186477714
C            6.07525761901747        1.92601455799807        1.09771549549403
C            5.12222322863217        2.19133976225859        2.07388998362090
C            5.30924667521554        3.21425662170264        2.99157305244585
C            6.45549766655197        3.98246599167335        2.95776022356461
C            7.43176906298222        3.70995071898887        2.01010841535404
C            7.25017100193260        2.69002775738507        1.09443401682291
O            8.27729411496932        2.46126004214211        0.20794767624779
C            8.11143575060893        1.44348142320049       -0.70276039001366
C            9.14694188738285        1.22832471166379       -1.59330992501213
C            9.04252609323865        0.24240492281426       -2.56409826597956
C            7.88864400901764       -0.51081228778259       -2.64502197140608
C            6.84848438361933       -0.29997561951265       -1.75219035026107
C            6.94927038211960        0.66175357565530       -0.75391036119646
C            4.79823399459723       -1.24408000116697        0.38940392221888
C            3.64683094324596       -2.00291563878987        0.35991495704039
N            1.33696652016588       -3.54441170676368        0.08546930367894
C            0.18797533700314       -4.19727847125018        0.04461219459099
H            1.96840121521706       -6.07543759806868        0.10075313224309
H            0.91207653164668       -7.23337974193719       -0.74479821563042
H            0.89659546151074       -7.14986200752618        1.03180410978298
H           -1.81985547282241       -6.68312609338917       -0.00989370297919
H           -3.66013237623787       -3.08665046798702       -0.29265006193163
H           -5.71151995394040       -1.71646586879390       -0.35710654960312
H           -5.77694825489863       -0.67986397636407        1.97096511621328
H           -7.51393370780003       -0.87167717085696        3.68066350688102
H           -9.55933304065358        0.52155037952273        3.54314776966500
H           -9.79986986052036        2.13846022413217        1.67015567859465
H           -8.31384389845174        4.19087262241075       -2.12296714330155
H           -6.68865560424320        4.47860223981719       -3.98226900670022
H           -4.67866822327832        3.03107411714693       -4.06464690167305
H           -4.28409599654285        1.37210044002837       -2.31126552827946
H           -3.36099271878366        1.82739196428161        0.06934591249746
H           -1.30692702797602        0.44474249624532        0.12771647778040
H            1.40930526122745        0.41012656719327       -0.39472494457301
H            3.47158764067853        1.77976748290257       -0.35342056328443
H            4.22876204977517        1.58914569057743        2.12167730808318
H            4.54860431930665        3.39994455526102        3.73434291933787
H            6.60454271637572        4.78243908717917        3.66576659577753
H            8.34853803317358        4.27694818967923        1.96763721341779
H           10.02585863311371        1.84876981188966       -1.51362183819594
H            9.85691749786043        0.08008527843266       -3.25243461450350
H            7.78302437921502       -1.26854920737262       -3.40628025875670
H            5.94626759855422       -0.88476600937549       -1.83699642950695
H            5.74950399952592       -1.70283950561570        0.61561289099578
H            3.68229556309334       -3.06178078281835        0.56163359213553
