  78
       -129.92359055
 C          0.9671352542       -6.5221166043        0.0299910983
 N         -0.0468425099       -5.5067756969        0.0085192226
 C         -1.4073369929       -5.6820695524       -0.0296203215
 N         -2.0593888578       -4.5465433482       -0.0415845746
 C         -1.1235240487       -3.5747294585       -0.0173410397
 C         -1.1496612497       -2.1394676332       -0.0078426144
 C         -2.3489241224       -1.3633793407       -0.0440048663
 C         -3.6166224989       -1.9738363665       -0.0931062803
 C         -4.7599898069       -1.2136951276       -0.1208679257
 C         -4.6809865335        0.1804000868       -0.1006566330
 N         -5.8651470718        0.9606368640       -0.1261619702
 C         -6.7353448080        0.9539797728        0.9533635469
 C         -6.4755498606        0.2205964429        2.1085008150
 C         -7.3663581600        0.2343149645        3.1672713744
 C         -8.5271126404        0.9838262430        3.0988091153
 C         -8.7922352173        1.7365580210        1.9655503178
 C         -7.9065164143        1.7285303971        0.9026524012
 O         -8.2176200992        2.5108992363       -0.1776130168
 C         -7.3468894755        2.5070052257       -1.2345786489
 C         -7.6731518028        3.2922869486       -2.3260156927
 C         -6.8447172752        3.3194689782       -3.4369447493
 C         -5.6964806204        2.5478931749       -3.4545147007
 C         -5.3629921509        1.7599583852       -2.3670162596
 C         -6.1721799176        1.7360445086       -1.2336047662
 C         -3.4301707565        0.8012733970       -0.0556574401
 C         -2.2861765102        0.0451667003       -0.0312217626
 N          0.0331469480       -1.5250448134        0.0219629326
 C          1.1894692804       -2.1513618645        0.0457634568
 C          2.4057455490       -1.3705304351        0.0723722405
 C          2.3644425190        0.0290291551        0.0314014630
 C          3.5254860039        0.7660329379        0.0480198733
 C          4.7610078284        0.1211854797        0.1111731037
 N          5.9602508123        0.8784395809        0.1262755866
 C          6.2859702904        1.6611977650        1.2259361512
 C          5.4769627437        1.7224121814        2.3566398773
 C          5.8301587213        2.5167323484        3.4342293196
 C          6.9978456537        3.2566421195        3.4071633073
 C          7.8267408103        3.1903040152        2.2978755338
 C          7.4812950317        2.3981186616        1.2178402476
 O          8.3560204916        2.3607633180        0.1636236478
 C          8.0174565702        1.5858392564       -0.9145444639
 C          8.8987451194        1.5657858204       -1.9805332178
 C          8.6074361616        0.8195182523       -3.1119968950
 C          7.4253641975        0.1050506804       -3.1750200888
 C          6.5391152766        0.1186598074       -2.1114312594
 C          6.8254490884        0.8449785697       -0.9593586920
 C          4.8157565344       -1.2707338358        0.1568194348
 C          3.6530300908       -2.0057838971        0.1352461349
 N          1.3080654117       -3.5055168901        0.0516983220
 C          0.1584493782       -4.1638623436        0.0109495075
 H          0.8793256885       -7.1325169861        0.9316721182
 H          1.9378230124       -6.0296050494        0.0213217848
 H          0.8797170687       -7.1685656614       -0.8458931326
 H         -1.8647859462       -6.6499102828       -0.0434803918
 H         -3.6729977107       -3.0507547909       -0.1118202097
 H         -5.7316566082       -1.6851305762       -0.1640693952
 H         -5.5674090669       -0.3566399544        2.1708570137
 H         -7.1447362731       -0.3441873497        4.0506711324
 H         -9.2228441774        0.9936627520        3.9227277841
 H         -9.6809070262        2.3420095640        1.8867707477
 H         -8.5820570054        3.8710314762       -2.2867809384
 H         -7.1045992274        3.9348747549       -4.2835077275
 H         -5.0525284545        2.5520483672       -4.3203581668
 H         -4.4738031738        1.1509448657       -2.3900945122
 H         -3.3781357586        1.8807847279       -0.0335888179
 H         -1.3147512580        0.5115666789        0.0093106673
 H          1.4026003791        0.5136255151       -0.0211708733
 H          3.4949043075        1.8454962670        0.0076849614
 H          4.5707130120        1.1389752129        2.3886809266
 H          5.1849672667        2.5502637434        4.2984740214
 H          7.2728822560        3.8780490019        4.2445015638
 H          8.7509030274        3.7437526728        2.2516911978
 H          9.8052891794        2.1447919986       -1.9060672726
 H          9.2999301790        0.8081532364       -3.9386233321
 H          7.1822785897       -0.4672914102       -4.0568117152
 H          5.6139119316       -0.4319640496       -2.1710210041
 H          5.7776744880       -1.7603031051        0.2108564817
 H          3.6784705164       -3.0833883101        0.1717565327
