78
 energy: -129.980963676244 gnorm: 0.000068713461 xtb: 6.7.1 (edcfbbe)
C            0.98367101492986       -6.56347126505974        0.20013324094654
N           -0.02741451163024       -5.54663436807432        0.10526180705557
C           -1.38391161144371       -5.72560435361169        0.01037053915606
N           -2.04154861246308       -4.59381221401109       -0.06696114518883
C           -1.10246132572706       -3.61783510805326       -0.03044677139509
C           -1.14046333703557       -2.18679181684324       -0.05364685532423
C           -2.33566892768051       -1.40754561930679       -0.12141208403415
C           -3.60405364736514       -2.01130324579454       -0.23918826293744
C           -4.74570497558897       -1.24893035966191       -0.28132659764858
C           -4.66828840605999        0.14404166847352       -0.20349604967466
N           -5.84935491870861        0.92966920996645       -0.22669639575837
C           -6.74597042569641        0.88394029477811        0.83129060127968
C           -6.53249636720700        0.08392225565912        1.95271358564072
C           -7.45099236620742        0.06032348906691        2.98677476286801
C           -8.59492846797761        0.83911182114773        2.92979333212012
C           -8.81350375889022        1.65890825248392        1.83464532094487
C           -7.89881468369939        1.68821327856485        0.79520402564421
O           -8.16224102848195        2.53699632419788       -0.24593265887904
C           -7.26700635540005        2.57296127589312       -1.28076596552504
C           -7.54653936649484        3.43088005638603       -2.33125365962798
C           -6.69173933477944        3.49816794565315       -3.41951213990999
C           -5.56469838805626        2.69393544450260       -3.45837955274546
C           -5.27710263687671        1.83621336932614       -2.41196415863737
C           -6.11194593873231        1.77133839574740       -1.29750562384739
C           -3.41781380932249        0.76027008127641       -0.09451104834526
C           -2.27645962544187        0.00139030916879       -0.05916255986630
N            0.04386792504967       -1.56186755239466       -0.00274909755906
C            1.19566643431860       -2.19512914715018        0.08137852636010
C            2.40738600367594       -1.39970121708661        0.11645263185848
C            2.36013709881443       -0.01206024049855       -0.06902151359451
C            3.51088485343721        0.74135965654873       -0.04766747118048
C            4.74494151032451        0.12628159359955        0.16805149190231
N            5.93146638717146        0.90306341212543        0.18976250316862
C            6.15069789416017        1.82335227051673        1.20747662292233
C            5.25748313572377        1.98989496580353        2.26329619477924
C            5.50531344086113        2.92122003787899        3.25665703861917
C            6.65007247455359        3.69861639926623        3.22121676243543
C            7.56277606183060        3.52947823399462        2.19236168946538
C            7.32285599723126        2.59812630697166        1.19641282457814
O            8.27723177955061        2.46340636424990        0.22286801266060
C            8.05272702001962        1.54208020945413       -0.76580454353485
C            9.02548438743423        1.41404792698026       -1.74266429562829
C            8.85098771221076        0.51828708195355       -2.78538144244619
C            7.69278319908291       -0.23667034270185       -2.85363703843343
C            6.71660216177881       -0.11529613588811       -1.88001343345810
C            6.88563761540920        0.76066872420178       -0.81020670023781
C            4.80614590354682       -1.25328512913771        0.35939693580833
C            3.65291443022994       -2.00468795390007        0.32893970239173
N            1.32920281424337       -3.54702957630112        0.14216577288918
C            0.17402272567558       -4.20106305874130        0.07215346581467
H            1.94335940460830       -6.06874196634866        0.33777584441263
H            1.01235739491634       -7.16307461664949       -0.71280617851989
H            0.78386766209062       -7.21853271413603        1.05033480125880
H           -1.83999338298601       -6.69481013238002        0.00739338783079
H           -3.66155581164884       -3.08721163752706       -0.29676538443402
H           -5.71337213109267       -1.72058132705263       -0.37907542051627
H           -5.63831338647531       -0.51611931267789        2.00793488239335
H           -7.26492005348120       -0.57019390494565        3.84230990840497
H           -9.31189132910558        0.81860084578239        3.73499236744544
H           -9.68610946627769        2.28884872573179        1.76620959534461
H           -8.43991989944732        4.03239271560524       -2.27695796083077
H           -6.91344549576812        4.16984447253876       -4.23345403568880
H           -4.90195253435408        2.72860046651444       -4.30904451692727
H           -4.40362359664773        1.20512979797847       -2.45094616433007
H           -3.36301361741013        1.83764364743020       -0.02730273928347
H           -1.30675105328307        0.46457937989571        0.03577762217271
H            1.40042173814217        0.44954637827461       -0.24035620029243
H            3.47050913899982        1.80978451403415       -0.20305553677530
H            4.36828510947820        1.38117638485246        2.30269581223940
H            4.79603860250430        3.03414624126782        4.06179155887898
H            6.84165385952588        4.42769980099465        3.99232783168240
H            8.47174442493139        4.10773089449620        2.14362850739920
H            9.90864537654418        2.02848667180776       -1.66860451172327
H            9.61413198021215        0.42112071936478       -3.54107618679094
H            7.54000023194593       -0.92572809594689       -3.66973921353953
H            5.81195846226019       -0.69837629677260       -1.94611412965035
H            5.76301120755690       -1.72379025641079        0.53420065015166
H            3.68552265911882       -3.07304458444976        0.47537503410826
