  154
       -221.97213529
 C         -1.5746181557       -5.5794945674        0.7249298927
 C         -0.8809750138       -5.6857693924       -0.6405855740
 C         -1.7906663411       -5.0457200338       -1.6931017683
 C         -0.6874840437       -7.1639420841       -1.0095461814
 C          0.4791531452       -5.0108653019       -0.5582206559
 C          1.4040344814       -5.4651895871        0.3915598276
 C          2.6540664978       -4.9013999686        0.5496540885
 C          3.0001404227       -3.8486353741       -0.2836256244
 C          2.0847162321       -3.3679297848       -1.2454132646
 C          0.8343510519       -3.9488267983       -1.3791792305
 C          2.7193094823       -2.2446436571       -1.8852164451
 C          2.2844184758       -1.3100853393       -2.8108091839
 C          3.1268051486       -0.2709362524       -3.1833820013
 C          2.6827803895        0.8423509856       -4.1186649609
 C          1.1930512572        0.7538711414       -4.4619934043
 C          2.9255075464        2.1925958743       -3.4286220068
 C          3.4926349584        0.7648281659       -5.4203825605
 C          4.4289524967       -0.2421660329       -2.6669920649
 C          4.8849632093       -1.1563793109       -1.7392074524
 C          3.9977706750       -2.1296887628       -1.3043049866
 N          4.1514984453       -3.0909396572       -0.3247660764
 C          5.1572601811       -3.0890634384        0.6512439545
 C          5.8888821411       -4.2441663349        0.9010984718
 C          6.8968065536       -4.2409109001        1.8488195958
 C          7.1984644844       -3.0787426623        2.5406843876
 C          6.4789217617       -1.9233142598        2.2959678249
 C          5.4408326153       -1.9201316805        1.3741937617
 C          4.6609454364       -0.6940798560        1.1288432612
 N          5.3515328268        0.4459258626        1.0617567062
 C          4.6333330956        1.4979999154        0.6285953181
 C          5.3600386053        2.7547824145        0.4414740174
 C          6.5972548467        2.9450686303        1.0531684580
 C          7.2870355944        4.1273891016        0.8667678002
 C          6.7580467063        5.1223757355        0.0593729557
 C          5.5335952813        4.9313365660       -0.5617459199
 C          4.8329910244        3.7565460302       -0.3701478084
 N          3.3570658047        1.4552559798        0.3275258896
 C          2.7004996745        0.2914066208        0.5164388529
 C          1.3191748580        0.1851167427        0.2102640228
 C          0.6286209538       -1.0305236964        0.4129384224
 C         -0.6855872241       -1.1543430039        0.0715210458
 C         -1.4024084254       -0.0617088723       -0.4619572885
 C         -2.7981808418       -0.1392223254       -0.7084179836
 N         -3.4645384116       -1.3019797446       -0.5672284367
 C         -4.7602837105       -1.3003617185       -0.7790337290
 C         -5.4963372813       -2.5594339755       -0.6704823037
 C         -6.8366905109       -2.6185555624       -1.0494010169
 C         -7.5343418118       -3.8061508472       -0.9465664565
 C         -6.9071912627       -4.9422908395       -0.4591965204
 C         -5.5770187178       -4.8857240135       -0.0727208311
 C         -4.8717630564       -3.7033871102       -0.1775169873
 N         -5.4850407400       -0.1981935794       -1.0527137989
 C         -4.7733370974        0.9281105868       -1.0901049466
 C         -5.5314198123        2.1909104236       -1.1616249659
 C         -6.6216562914        2.3211176637       -2.0101067294
 C         -7.3124691621        3.5172931880       -2.0866050805
 C         -6.9276201677        4.5904805472       -1.2991609383
 C         -5.8646334901        4.4645480071       -0.4223370648
 C         -5.1623205464        3.2682370109       -0.3409646622
 N         -4.1022075681        3.1308689676        0.5661657812
 C         -3.9405987100        2.0639553490        1.4271163961
 C         -4.8538719207        1.0955917476        1.8164111658
 C         -4.3964092187        0.0692765777        2.6172675614
 C         -3.0664623003       -0.0201356193        3.0484664681
 C         -2.6345472882       -1.2448497113        3.8386242591
 C         -1.1216852712       -1.2806050080        4.0731373926
 C         -3.3435910139       -1.2456598070        5.2001156128
 C         -3.0185467172       -2.5029365458        3.0457418542
 C         -2.1889845657        1.0076039545        2.7268340479
 C         -2.6243678139        2.0542860793        1.9306047170
 C         -1.9700858449        3.2090990134        1.3705104205
 C         -0.6848755218        3.7140253444        1.4802901728
 C         -0.3280302585        4.8473277610        0.7607217006
 C          1.0637284559        5.4556722953        0.8331487910
 C          1.6386899242        5.5861960105       -0.5843140605
 C          0.9594924217        6.8468635246        1.4760049594
 C          2.0350706924        4.6125460076        1.6644913791
 C         -1.2884898374        5.4511992645       -0.0617678231
 C         -2.5722985654        4.9626077253       -0.1986791756
 C         -2.9170490043        3.8353415216        0.5306944451
 N         -3.4688186977        0.9998000866       -1.0055626390
 C         -0.7090369172        1.1502702128       -0.6752878719
 C          0.6082751131        1.2699187355       -0.3467361848
 N          3.3706995451       -0.8068833224        0.9371684097
 H         -1.6607896322       -4.5374244605        1.0222987891
 H         -1.0198211601       -6.1053281270        1.4968334414
 H         -2.5720472919       -6.0097159024        0.6728439995
 H         -1.3601986416       -5.1379145919       -2.6878452072
 H         -1.9660108672       -3.9942302694       -1.4790101097
 H         -2.7548407035       -5.5505689909       -1.6981760745
 H         -1.6529341692       -7.6599015607       -1.0857459406
 H         -0.1797239360       -7.2487113176       -1.9680848897
 H         -0.0943069371       -7.6855847715       -0.2632266582
 H          1.1374648460       -6.2861530729        1.0395956296
 H          3.3308819814       -5.2636106196        1.3090057616
 H          0.1543571056       -3.5484814890       -2.1113832632
 H          1.2835419663       -1.3928367378       -3.1988469729
 H          0.5866336983        0.7861378335       -3.5590915201
 H          0.9680211426       -0.1565900994       -5.0128686015
 H          0.9141896292        1.5987153818       -5.0889233838
 H          3.9848821044        2.3829894605       -3.2791992343
 H          2.5172853447        3.0018788547       -4.0311597820
 H          2.4354573257        2.1963064221       -2.4580160749
 H          4.5581995382        0.8586927450       -5.2269354817
 H          3.1949857145        1.5645336294       -6.0956530564
 H          3.3193517506       -0.1885888258       -5.9157214432
 H          5.1092169314        0.5339360236       -2.9829096558
 H          5.8882505586       -1.0898910832       -1.3437657893
 H          5.6740179120       -5.1356769876        0.3296749553
 H          7.4572487805       -5.1447865916        2.0352491533
 H          7.9940087375       -3.0741081232        3.2701296997
 H          6.6978701885       -1.0096659545        2.8272544903
 H          6.9988755833        2.1563276020        1.6703784211
 H          8.2428134982        4.2753226742        1.3478986042
 H          7.3017456996        6.0439474047       -0.0900251153
 H          5.1285620843        5.7018349050       -1.2026956163
 H          3.8828400894        3.5903225378       -0.8507925628
 H          1.1707982111       -1.8567410023        0.8476940818
 H         -1.2087280555       -2.0871443631        0.2186848647
 H         -7.3101768092       -1.7229499368       -1.4210571080
 H         -8.5718310160       -3.8492517710       -1.2446948207
 H         -7.4549426372       -5.8698939156       -0.3774129247
 H         -5.0922686817       -5.7703192658        0.3155563525
 H         -3.8392519598       -3.6431848868        0.1236719049
 H         -6.9048890549        1.4764908439       -2.6197020859
 H         -8.1504129028        3.6134254304       -2.7601728626
 H         -7.4655663053        5.5250468292       -1.3548817765
 H         -5.5832917828        5.2840693822        0.2231493010
 H         -5.8807061234        1.1211278760        1.4815733462
 H         -5.0990453053       -0.7002494866        2.8978710317
 H         -0.5838468534       -1.2519449434        3.1278896410
 H         -0.8555339732       -2.2011829708        4.5891906270
 H         -0.7988061324       -0.4476635917        4.6935713796
 H         -3.0685072116       -0.3595944433        5.7688828962
 H         -3.0572012085       -2.1263323485        5.7714522419
 H         -4.4240335344       -1.2509850847        5.0804931140
 H         -2.6338345221       -2.4234342035        2.0323326968
 H         -4.0958200320       -2.6328680433        2.9893266908
 H         -2.5958419200       -3.3886921321        3.5158212634
 H         -1.1633953085        0.9980895493        3.0545208222
 H          0.0208174691        3.2028764894        2.1125013935
 H          1.6344631916        4.6192157568       -1.0820887298
 H          2.6629683081        5.9475609226       -0.5345784090
 H          1.0639275013        6.2814895391       -1.1899138211
 H          0.3108748070        7.5011483137        0.8990091381
 H          1.9443184256        7.3054121377        1.5363040284
 H          0.5535629155        6.7666987605        2.4823825206
 H          1.7055944950        4.5411359206        2.6986679793
 H          2.1434873199        3.6110830800        1.2548300524
 H          3.0180133232        5.0805063473        1.6597408532
 H         -1.0247429309        6.3337366058       -0.6241816011
 H         -3.2772604130        5.4402664048       -0.8626386548
 H         -1.2527529515        1.9792449438       -1.1029977047
 H          1.1329420416        2.2003829306       -0.5017788893
