  95
       -147.84573440
 C          1.0818599643       -6.9372165463        0.4009202579
 C          0.0342069181       -6.9326365576        1.3068741149
 C         -1.0326851979       -6.0694440026        1.1355437919
 C         -1.0548517976       -5.2035987969        0.0461651501
 N         -2.1525034701       -4.3554665963       -0.1508608503
 C         -2.1558980196       -3.0022774442       -0.4886226500
 C         -1.0446906918       -2.1220448056       -0.4216386860
 C          0.1417985449       -2.3738211382        0.3152496996
 C          1.1532977333       -1.4597022458        0.3585042958
 C          1.0503065723       -0.1981176059       -0.2808060348
 C          2.0450320749        0.8162055717       -0.1317617948
 C          3.4021914566        0.4844654480       -0.0114551052
 C          4.3875066177        1.4401480050       -0.1168100536
 N          5.7336644907        1.0859852769       -0.0079367959
 C          6.7445728745        1.4641330201       -0.8674781761
 C          6.6742978640        2.1906753699       -2.0483459585
 C          7.8498123938        2.4111681627       -2.7410020112
 C          9.0676648195        1.9132102299       -2.2836427716
 C          9.1396881919        1.1638431233       -1.1246406070
 C          7.9729800862        0.9304074091       -0.4111879715
 C          7.6764504320        0.1941761414        0.7871699107
 C          8.4547593631       -0.5214726940        1.6856410520
 C          7.8394030531       -1.1010246390        2.7787912720
 C          6.4696605640       -0.9595032119        2.9890090463
 C          5.6739966320       -0.2521045744        2.1078008466
 C          6.2820216195        0.3118589094        0.9948597947
 C          4.0391795261        2.7960422565       -0.3450405621
 C          2.7193734481        3.1574812879       -0.3844731160
 C          1.6937957346        2.2189270971       -0.2044276402
 C          0.3379192192        2.6338967711        0.0200653190
 C         -0.2323078436        3.7485093538       -0.6286435485
 C         -1.5721817612        4.0249420350       -0.5224193265
 C         -2.4032345582        3.2191726599        0.2690508202
 N         -3.7812422818        3.3944638353        0.2885900344
 C         -4.4761700942        4.5796814034        0.4135041435
 C         -3.9989742703        5.8666903964        0.6194085108
 C         -4.9243717796        6.8862351197        0.7450425328
 C         -6.2928920886        6.6365527567        0.6807924564
 C         -6.7750109047        5.3522091931        0.5061140155
 C         -5.8662570063        4.3130742192        0.3761920816
 C         -6.0058496091        2.8902825715        0.2116764667
 C         -7.0980959703        2.0440529208        0.0845781396
 C         -6.8703787110        0.6916455047       -0.0972608004
 C         -5.5753688945        0.1851308241       -0.1735829748
 C         -4.4728051981        1.0092932777       -0.0503320616
 C         -4.6956052346        2.3619359131        0.1652543551
 C         -1.8277196401        2.1876044297        1.0210759239
 C         -0.4961831543        1.9010246164        0.8976993853
 C         -0.1271435023        0.0284702778       -1.0529769882
 C         -1.1286386551       -0.8899933018       -1.1145700369
 N         -3.3733421289       -2.5851537818       -0.8264839690
 C         -4.1932999480       -3.6521816358       -0.7076806845
 C         -5.5649177091       -3.7698503234       -0.9468415225
 C         -6.1473862050       -5.0040001521       -0.7613021037
 C         -5.4024651442       -6.1153789991       -0.3587023803
 C         -4.0422544530       -6.0275257016       -0.1168627466
 C         -3.4508490198       -4.7882280256       -0.2793441433
 C         -0.0037783301       -5.2133203451       -0.8689840776
 C          1.0604545790       -6.0739913332       -0.6835285045
 H          1.9132350340       -7.6115818530        0.5391910185
 H          0.0486501395       -7.6012793045        2.1547688801
 H         -1.8436290342       -6.0486239163        1.8485117354
 H          0.2294634563       -3.2810482038        0.8926022286
 H          2.0211632839       -1.6699863653        0.9667020705
 H          3.6892135281       -0.5528973941        0.0714050935
 H          5.7316673376        2.5595626542       -2.4227442106
 H          7.8221375537        2.9763776418       -3.6606896243
 H          9.9643575968        2.1077291637       -2.8526129613
 H         10.0810185533        0.7624504033       -0.7811204963
 H          9.5192424648       -0.6158567725        1.5334785196
 H          8.4267478906       -1.6637376282        3.4887250472
 H          6.0198867823       -1.4089674508        3.8618764762
 H          4.6169230563       -0.1305169133        2.2884583864
 H          4.8200205543        3.5372689574       -0.4097430885
 H          2.4625809961        4.2029500461       -0.4720253684
 H          0.3773388234        4.3432015406       -1.2921901194
 H         -2.0078662702        4.8268310545       -1.0994353618
 H         -2.9410515088        6.0664186959        0.6958271961
 H         -4.5781133036        7.8968126993        0.9024070321
 H         -6.9847067044        7.4594097118        0.7813378410
 H         -7.8365788977        5.1580489548        0.4770346581
 H         -8.1025271345        2.4379792144        0.1203813005
 H         -7.7090053284        0.0182699081       -0.1939362174
 H         -5.4093945957       -0.8676351504       -0.3373540083
 H         -3.4791764372        0.5997421911       -0.1348742876
 H         -2.4448921617        1.6284571389        1.7073729323
 H         -0.0604864683        1.1269328253        1.5093686819
 H         -0.1912697421        0.9251617834       -1.6501578854
 H         -2.0062415042       -0.7166262905       -1.7174934363
 H         -6.1384184895       -2.9192154302       -1.2791938436
 H         -7.2062203897       -5.1241603245       -0.9390174123
 H         -5.8992827454       -7.0664983859       -0.2382186497
 H         -3.4693461347       -6.8943356264        0.1767519935
 H         -0.0309821715       -4.5413551649       -1.7138719744
 H          1.8741040354       -6.0763965585       -1.3933665925
