101
 energy: -154.234351877218 gnorm: 0.000072863449 xtb: 6.7.1 (edcfbbe)
C            5.05242658620116        4.70203312165788       -0.40830987879495
C            4.84193071567226        3.19570210540574       -0.16608960876845
C            6.19459369815869        2.48914384099123        0.04643826736559
C            4.00941094643221        3.01123811485749        1.08435311212502
C            4.45812531943098        3.52493886675225        2.29295454128173
C            3.74827733525604        3.36071321300713        3.46807871771793
C            2.55653168880934        2.65423954008955        3.45227761559561
C            2.08881634134844        2.13233500999441        2.26825362705250
C            2.79711983418647        2.30775149474391        1.07282372434111
N            2.29085427785332        1.78617389323409       -0.10039341271343
C            1.12310221774254        0.98741644781777       -0.05167816484132
C           -0.15041649838447        1.52574553495433       -0.10947220883749
F           -0.28098528462375        2.86963948587356       -0.21307431582990
C           -1.29610952478647        0.75141624414888       -0.06079395174676
N           -2.59716072523344        1.30667560770799       -0.11770772274709
C           -3.20814063897220        1.70634814330902        1.05356975977863
C           -2.48374262143697        1.68432885369893        2.25199434526935
C           -3.05799338353140        2.08976650109272        3.43475523176424
C           -4.37405774917127        2.52271781081803        3.44613689619730
C           -5.09705583173593        2.53515589450976        2.26762586233478
C           -4.54279697084897        2.13441250554487        1.06007886626208
C           -5.38970450024519        2.13981929261889       -0.19427610301886
C           -5.92240867322597        3.56529242074794       -0.43140352411529
C           -6.55646228645776        1.15394580366495        0.00774138647343
C           -4.60471138476669        1.70193094992722       -1.41175060075483
C           -5.22043116339951        1.66974969873281       -2.65495696685216
C           -4.54916909364344        1.26739020672271       -3.79479367359869
C           -3.22037320940401        0.88529664359623       -3.70564386720613
C           -2.58558171309118        0.90495125258707       -2.48515644749034
C           -3.26370185128220        1.30431916037518       -1.32645853719050
C           -1.15878246832615       -0.68937510933356        0.04528349824335
C           -2.29468019052316       -1.49295784370215        0.08871078364207
N           -3.24396861348346       -2.14968706311078        0.12565645408931
C            0.11830039321879       -1.24023453943859        0.09836685438968
N            0.25969747073119       -2.65164230842145        0.18925969411619
C            0.31565710115211       -3.23458827768077        1.43710443182750
C            0.20294348894844       -2.43258368081603        2.57932633403509
C            0.25509961416257       -2.98677198967917        3.83794535524926
C            0.42230799330861       -4.35472027027605        3.98045570725873
C            0.53458460101906       -5.14914736158042        2.85442157255659
C            0.48415267216058       -4.61883740357219        1.57305876068178
C            0.61602230855551       -5.53247545411450        0.37353537512521
C           -0.52162404608963       -6.56993349779157        0.41876590591121
C            1.98798326137556       -6.22994996602348        0.43967687974869
C            0.52582497665180       -4.77411398548695       -0.93325645168582
C            0.61807885733838       -5.45868867412868       -2.13691257953107
C            0.54336791919293       -4.81037722792629       -3.35573690286842
C            0.37109324984133       -3.43608935300655       -3.38902938497297
C            0.27796343627756       -2.73103484359275       -2.21094984900638
C            0.35443638017094       -3.38426036295610       -0.97488370496003
C            1.26526118535058       -0.45265418305535        0.05551829251587
C            2.53299151587853       -1.02521970244586        0.10953448060136
N            3.58746040365112       -1.49408932267422        0.15544617720969
C            2.95186526084923        1.91833903037051       -1.30493712541036
C            2.38351366325025        1.37676146736453       -2.46495707612107
C            3.01659361198090        1.48716476631020       -3.68150870828432
C            4.23305178667998        2.14501821941906       -3.76554137890159
C            4.79466184651278        2.68717980004820       -2.62433248879636
C            4.17780361794628        2.59251660729432       -1.38487561678664
H            5.55229040519718        5.16482901060106        0.43762359727825
H            4.09084543498826        5.19166386001790       -0.55038927883454
H            5.65854070362162        4.87142994097924       -1.29351368708139
H            6.70881991039870        2.89186106725242        0.91465120289193
H            6.83611480634161        2.61476572507165       -0.82127481870371
H            6.03184589968615        1.42464885018066        0.20381670247260
H            5.39079460916652        4.06697748294543        2.32617386694926
H            4.12557563975294        3.77545807198225        4.39012842965735
H            1.99423793304976        2.50934062869360        4.36223147934503
H            1.16401978343269        1.57689032407318        2.25947158780364
H           -1.46051233196806        1.34255365531457        2.24644098209584
H           -2.48158490638641        2.06682976104401        4.34713122820935
H           -4.83613271243676        2.84277785461423        4.36732909014663
H           -6.12466554960253        2.86363152867300        2.29736308040225
H           -6.51519407217253        3.90357275941934        0.41345010590624
H           -6.54675385644738        3.60327874060291       -1.31930011224676
H           -5.09003559486721        4.25351023720381       -0.56593096224490
H           -7.20611544899605        1.14149796369766       -0.86293920014312
H           -6.16586777237188        0.14978195977585        0.16107202162954
H           -7.14976396660655        1.42991664803253        0.87507815264704
H           -6.25557713057294        1.96212201202452       -2.74290106950235
H           -5.05942649200989        1.25208473776316       -4.74554718602961
H           -2.68096162717234        0.57174252454825       -4.58646763644206
H           -1.54954607184394        0.61138998898219       -2.41837529298909
H            0.07251469537926       -1.36716292100008        2.47226444482248
H            0.16578887884815       -2.35319868050884        4.70713543476530
H            0.46549444814533       -4.80014147075838        4.96239500163261
H            0.66600828426575       -6.21237562026035        2.98453357787771
H           -0.45297962006640       -7.25677541151777       -0.41990305738805
H           -0.48141561341747       -7.14887535268313        1.33692671103860
H           -1.48348745057718       -6.06305255900146        0.37208294244165
H            2.11730282009239       -6.90906013611348       -0.39825151149298
H            2.78079286427002       -5.48519192521117        0.40609680699605
H            2.08839911968089       -6.79905843095681        1.35949499283792
H            0.75307077602230       -6.52937659662988       -2.12994795219308
H            0.61888527595939       -5.37367291113118       -4.27304200150228
H            0.30965348505651       -2.91525252931880       -4.33237861813085
H            0.14297519603771       -1.66136253267870       -2.24133488478482
H            1.43459395568321        0.86731209547843       -2.40245276431480
H            2.56328551445764        1.06046162933603       -4.56329622247336
H            4.74104241384759        2.23535687725540       -4.71333580412763
H            5.74339001782202        3.19476138557745       -2.70822030127788
