101
 energy: -154.234346267600 gnorm: 0.000107613189 xtb: 6.7.1 (edcfbbe)
C            4.27297264024685        5.37312490326169        1.07565527755327
C            4.23156516015745        3.83381780956779        1.10052493521228
C            5.61036763284248        3.26247515329637        1.48356117650111
C            3.22843293695589        3.38567305004136        2.14150188940826
C            3.38045734524776        3.78443936998756        3.46201774593047
C            2.50726175879303        3.38011639303136        4.45493984049645
C            1.44996076007827        2.54378813961467        4.13507505329502
C            1.27709323963785        2.12994360533803        2.83430593857140
C            2.15247076604093        2.54567321694588        1.82316394734952
N            1.94230774196829        2.12299868735170        0.52623503857356
C            0.93907268145275        1.15740993615219        0.27063218299654
C           -0.38032711123711        1.49500834817733        0.02632289277131
F           -0.72943855748254        2.80317146997288        0.04877670676191
C           -1.35925948265970        0.55342691705915       -0.23808419544289
N           -2.71288003798418        0.90273716753451       -0.46331449621359
C           -3.59337621617048        0.86052859662391        0.59878034749724
C           -3.10564579522980        0.61530545257111        1.88864385277815
C           -3.95474003261814        0.56895183148520        2.97022134153022
C           -5.31348585193766        0.76705906165658        2.78538017103296
C           -5.79970509037495        1.01001011145632        1.51406520899640
C           -4.96631692122725        1.06473581758751        0.40575370537055
C           -5.55414829559174        1.31689825122160       -0.96585385819364
C           -6.30866511615470        2.65936773105504       -0.94580581484556
C           -6.51746795916293        0.16099552411101       -1.29757693922034
C           -4.48904238799176        1.36856976945563       -2.03989123411796
C           -4.84895108768271        1.61677641522015       -3.35694125154460
C           -3.91632779339739        1.65252134007433       -4.37714420861034
C           -2.57970006492642        1.42906561157593       -4.08859770622457
C           -2.19468450905410        1.17797766794236       -2.79173718873590
C           -3.13488526145266        1.14727728953833       -1.75412026433720
C           -0.98717735370166       -0.84867384461504       -0.26944879263388
C           -1.95078147982099       -1.81584937360315       -0.54146536298438
N           -2.75841883987149       -2.60951468357593       -0.76866530199145
C            0.33654799868086       -1.19823344242390       -0.01855645448563
N            0.70562035090250       -2.57044020469132       -0.04208474469187
C            0.56225854443295       -3.31614986198841        1.10865143300122
C            0.05035572218671       -2.71281564884661        2.26387941920246
C           -0.11043111671653       -3.43429323775744        3.42466326980991
C            0.24136377676435       -4.77397231948573        3.45578013894966
C            0.75539563258755       -5.37044715627532        2.31933570154768
C            0.92767572065262       -4.66848269165062        1.13468966061230
C            1.50374664930812       -5.36738822225857       -0.07799269162887
C            0.58370165848466       -6.54576984939390       -0.44896620503162
C            2.91559556107667       -5.87278641928444        0.27460714546318
C            1.60829208123888       -4.44343735292015       -1.27224786956208
C            2.11335879254032       -4.92145263426340       -2.47319827776269
C            2.22410949250333       -4.11772266070124       -3.59266072992417
C            1.81695460299848       -2.79506534698893       -3.52705191502288
C            1.31257946047200       -2.29355363159416       -2.34900393631086
C            1.20752373590636       -3.10236402888358       -1.21087858738078
C            1.31309684377468       -0.24449445059397        0.25423382234046
C            2.63172111703338       -0.61391029117803        0.50416024185325
N            3.72798932097170       -0.91054503048866        0.71439941742357
C            2.77062097568916        2.50362293004622       -0.51042945430578
C            2.49378542327673        2.06124161787608       -1.81026178529627
C            3.30051405545035        2.41725974021415       -2.86633840765425
C            4.40335317595210        3.22637519401277       -2.64560420095899
C            4.67680500029889        3.67106644349348       -1.36532325304004
C            3.87863877967005        3.33058080017741       -0.28235686462926
H            4.55058701385969        5.76970074981300        2.04786395779276
H            3.29285792845443        5.76519278416589        0.81064261697885
H            4.99462418163257        5.73015644314554        0.34674981243749
H            5.56922999248696        2.17492755525852        1.48515828526993
H            5.90606592172311        3.59837432590578        2.47362275828888
H            6.36926465839967        3.57735448375151        0.77272880866183
H            4.20554772769258        4.42573961657817        3.73166040560688
H            2.65430602076834        3.71065549125621        5.47163956361952
H            0.76280153433907        2.21367363491456        4.89927271251359
H            0.45579981528849        1.47510009397883        2.58839944620755
H           -2.04785755024703        0.46090184087023        2.03475164790148
H           -3.55882813171303        0.37736093253112        3.95600366539753
H           -5.99020076529467        0.73039066809023        3.62516412032175
H           -6.86151372886861        1.15639990174301        1.38804052679277
H           -7.09455472161958        2.65149926433803       -0.19617382165603
H           -6.76382206083486        2.86299176297726       -1.91067294879153
H           -5.61847719382860        3.46805708227958       -0.71290336388411
H           -5.97206388264750       -0.78076719923693       -1.30382741753207
H           -7.31054006921193        0.09510164000250       -0.55795350204207
H           -6.97020668815441        0.30402081333450       -2.27479671207306
H           -5.88671391285972        1.78389268029184       -3.60167785340699
H           -4.23104097953501        1.84914730772045       -5.39048259464289
H           -1.83964452327742        1.44928827507741       -4.87413175772686
H           -1.15385233194337        1.00185574237935       -2.56871650343472
H           -0.22134449173750       -1.66919140540767        2.24518212835429
H           -0.50888069373098       -2.95279838362883        4.30459644923756
H            0.11889431848464       -5.34989268983919        4.36008966574556
H            1.02895824985847       -6.41346040215799        2.36326989009054
H            0.96870268114547       -7.08073706277415       -1.31237584361187
H            0.50046889499959       -7.24662083324430        0.37669003475536
H           -0.41091524389753       -6.17444147465303       -0.68802505986132
H            2.88365765008423       -6.54800717976264        1.12494676973747
H            3.35787453465766       -6.40155676101779       -0.56488063755955
H            3.55539418681381       -5.02940954715763        0.52701090520734
H            2.43192044993163       -5.95015564946830       -2.54349986619712
H            2.62305830207417       -4.52142577241609       -4.51043912189927
H            1.89228719521714       -2.15597565278759       -4.39353377441102
H            0.99290314695464       -1.26443709134035       -2.30332788757533
H            1.63359416698525        1.43374486015159       -1.98455140252041
H            3.07132625865539        2.06388261218193       -3.86020222256009
H            5.04650987272807        3.50878034211464       -3.46482608397763
H            5.54172400541145        4.29796544953488       -1.21156915446277
