101
 energy: -154.290397447901 gnorm: 0.000044494648 xtb: 6.7.1 (edcfbbe)
C            5.35240795827885       -4.28427053332605       -0.00146967858446
C            5.08277986227672       -2.76884822632031        0.00102317997075
C            6.40722276280761       -1.98425354629670        0.00360227118792
C            4.31640566772696       -2.40981014447592       -1.25754148141202
C            4.87669748376278       -2.66796014132367       -2.50115205565089
C            4.22624876069961       -2.35335062917102       -3.67997080210143
C            2.97787000559824       -1.76224086510746       -3.62971361283877
C            2.39760292186344       -1.49550646766354       -2.40720778971160
C            3.05468946770030       -1.81403286834935       -1.21809702928052
N            2.44069997212215       -1.54317220510980        0.00089672102052
C            1.21863048785012       -0.84231450057599        0.00093911224094
C            0.00161315812218       -1.52028244522070        0.00264025289043
F            0.00296220343161       -2.85812459302559        0.00489672324851
C           -1.21676788842968       -0.84476961444241        0.00111459279538
N           -2.43741835791945       -1.54809547455614        0.00105316402266
C           -3.05106518061117       -1.81972456500406       -1.21794619807213
C           -2.39483501602606       -1.49939821465856       -2.40704742564765
C           -2.97475445349076       -1.76686587736105       -3.62955746170040
C           -4.22191389717101       -2.36054067190437       -3.67983358619700
C           -4.87150860264648       -2.67695289141570       -2.50102640777720
C           -4.31154547134966       -2.41811294952312       -1.25741117736576
C           -5.07693803269763       -2.77927814502193        0.00114175563569
C           -5.34327152059141       -4.29528274747354       -0.00189037780363
C           -6.40307655451941       -1.99755442817981        0.00420683463202
C           -4.30882899462113       -2.42370205269928        1.25963844458000
C           -4.86641030297625       -2.68741434255279        2.50329859397655
C           -4.21459930725207       -2.37553157862795        3.68209292617049
C           -2.96777871753418       -1.78114677597165        3.63176744508087
C           -2.39024134307502       -1.50879742635328        2.40920809406274
C           -3.04835640330671       -1.82529149153057        1.22013621572543
C           -1.20618736380414        0.55761975342826       -0.00093223824007
C           -2.43612107547787        1.25994310820901       -0.00182780726342
N           -3.43133703483964        1.82472190359298       -0.00232262435626
C           -0.00119559451006        1.26755258328215       -0.00162200113883
N           -0.00263315295477        2.67661544540712       -0.00192395696564
C           -0.00297205164628        3.34695488474428       -1.22110031414864
C           -0.00175170905196        2.61620436262679       -2.40980206031649
C           -0.00207536671574        3.25469204817756       -3.63239555336344
C           -0.00366708673237        4.63588346731747       -3.68292657534658
C           -0.00492129722452        5.35872590449752       -2.50429956321284
C           -0.00460490192808        4.74213172318003       -1.26060115603505
C           -0.00607238062253        5.58836078936771       -0.00204393099669
C           -1.27269544635208        6.46304382822736       -0.00246316897010
C            1.25830383465073        6.46628640714349       -0.00167279194983
C           -0.00540450944113        4.74224651379068        1.25658897067368
C           -0.00645938770431        5.35900647206132        2.50020977472433
C           -0.00591762281674        4.63634078384132        3.67894163051705
C           -0.00425551925790        3.25514759545841        3.62857657685728
C           -0.00318071606009        2.61649276159235        2.40606589182428
C           -0.00377163618168        3.34706082449951        1.21723686863527
C            1.20522676531374        0.56005034670747       -0.00119960460613
C            2.43373868913167        1.26485197784519       -0.00234715646724
N            3.42781655667747        1.83162390537784       -0.00329592675588
C            3.05239053141807       -1.81868173870354        1.21998843363583
C            2.39376820660294       -1.50321250589329        2.40905251084912
C            2.97203760807480       -1.77397277361793        3.63161849535842
C            4.22011622784998       -2.36570883373088        3.68196253910595
C            4.87242217147779       -2.67658976024176        2.50317727210833
C            4.31411212147072       -2.41445360819532        1.25951105334252
H            5.91836872056715       -4.57634802939154       -0.88152080300923
H            4.40934433139808       -4.82768182716373       -0.00322850842703
H            5.91685769379121       -4.57944665740318        0.87852080460969
H            6.20226454943689       -0.91528941750144        0.00531954686017
H            6.99888102261705       -2.21938339236468       -0.87667088298195
H            6.99741258105288       -2.22253352637353        0.88401243469941
H            5.85169157957629       -3.12711705022565       -2.55776329032077
H            4.69215761529070       -2.56801821433262       -4.62921995961438
H            2.45246810698419       -1.50768914672637       -4.53766021652382
H            1.41997514886207       -1.03587539886315       -2.37907923725741
H           -1.41815074798790       -1.03776725191128       -2.37891600674397
H           -2.45003647575325       -1.51086914686817       -4.53749349376043
H           -4.68754265079639       -2.57579422323550       -4.62908831182106
H           -5.84555085874519       -3.13812255999650       -2.55764881975406
H           -5.90894503616533       -4.58820859936872       -0.88184491049391
H           -5.90673155045963       -4.59205494980693        0.87819694417069
H           -4.39903233648277       -4.83664732040179       -0.00425318965567
H           -6.20044276461963       -0.92814700504455        0.00600897032595
H           -6.99448014633644       -2.23385602102111       -0.87592407486968
H           -6.99249581773043       -2.23723051988997        0.88475226932737
H           -5.84035907108535       -3.14877983118416        2.55997767234453
H           -4.67842362548224       -2.59449707174285        4.63138263262141
H           -2.44161238627598       -1.52812202191770        4.53969836003436
H           -1.41412379565390       -1.04597969291886        2.38098253595737
H           -0.00054301406363        1.53595708557851       -2.38145186216188
H           -0.00111614790340        2.67073708807832       -4.54019596882448
H           -0.00396569503555        5.14860822343415       -4.63229174432816
H           -0.00618956668081        6.43638537989678       -2.56115370464886
H           -1.30515737851595        7.09901183262696        0.87765795766706
H           -1.30473962589299        7.09879517299652       -0.88275482197448
H           -2.15799228538462        5.82988559723147       -0.00259003729490
H            1.28922793048350        7.10216748033361       -0.88190944401989
H            1.28863449514874        7.10229647300473        0.87849311850561
H            2.14522008579024        5.83539945832598       -0.00132918983043
H           -0.00774868470794        6.43667256055286        2.55691583576245
H           -0.00675992298417        5.14918826277117        4.62824019585758
H           -0.00376529611214        2.67129458214534        4.53644404327411
H           -0.00184795013941        1.53624263979376        2.37795576695297
H            1.41666904197408       -1.04247181190122        2.38082198680244
H            2.44546328454949       -1.52176735052911        4.53954111354553
H            4.68453790657256       -2.58337828703938        4.63125922473608
H            5.84734920952921       -3.13588126836733        2.55986723367239
