  90
  -145.110440660000        1.00000000000000      !
 N        -10.9443496964       -1.9065661044        0.5199906952
 C         -9.9388848444       -1.3665263079        0.3719111156
 C         -8.7234647823       -0.6971741601        0.1901428912
 N         -7.5770304470       -1.3334778224        0.3526097539
 C         -6.4446706982       -0.7248241657        0.1869937798
 C         -6.4427988577        0.7251173568       -0.1921864320
 N         -7.5733300929        1.3394047084       -0.3490601620
 C         -8.7216014382        0.7086389660       -0.1778630557
 C         -9.9346846849        1.3850458397       -0.3491257196
 N        -10.9376795406        1.9318798741       -0.4891903492
 C         -5.0873609300        1.1361017061       -0.2985157516
 C         -4.4478720217        2.3334484673       -0.6027823428
 C         -3.0621399028        2.3645654687       -0.5321642097
 C         -2.2760542608        1.2591880040       -0.2036302440
 C         -0.8516168059        1.4690142638        0.0631479485
 C         -0.0279435634        2.1582649239       -0.8261715543
 C          1.2977036317        2.3891739477       -0.5322050944
 C          1.8438229442        1.9654233841        0.6844407491
 N          3.1850557022        2.2031141675        0.9765628259
 C          3.9217249087        1.3406716458        1.7948443373
 C          4.9205268292        1.8521586655        2.6257967309
 C          5.6668599688        1.0051421496        3.4208764822
 C          5.4302001039       -0.3602621707        3.4086506794
 C          4.4345459909       -0.8723684841        2.5928010003
 C          3.6863893288       -0.0345230095        1.7894544200
 C          3.8298043861        3.3214634927        0.4237977819
 C          3.1912811790        4.5604163709        0.3873882914
 C          3.8311881336        5.6536069797       -0.1641044534
 C          5.1109848922        5.5293064585       -0.6810323985
 C          5.7506357772        4.3005573965       -0.6424919217
 C          5.1184838011        3.2006564985       -0.0956327426
 C          1.0122098956        1.3025172526        1.5921432855
 C         -0.3036269247        1.0513995461        1.2788119388
 C         -2.8982040227       -0.0062173621       -0.0106813942
 C         -2.2793226919       -1.2734106480        0.1804937924
 C         -0.8545348330       -1.4840886940       -0.0847462810
 C         -0.3042129572       -1.0673054556       -1.2995714196
 C          1.0138425883       -1.3137671024       -1.6078012068
 C          1.8447787422       -1.9705048270       -0.6952338001
 N          3.1888723891       -2.2034586870       -0.9804855751
 C          3.8288767058       -3.3247556649       -0.4276796790
 C          3.1896199650       -4.5636959337       -0.4066567325
 C          3.8223663578       -5.6605230701        0.1457398947
 C          5.0958012416       -5.5397270242        0.6790019342
 C          5.7361304732       -4.3109550161        0.6559224500
 C          5.1110019480       -3.2073642765        0.1082677082
 C          3.9308296769       -1.3341026661       -1.7857300406
 C          4.9496914981       -1.8348577089       -2.5989611052
 C          5.7032341003       -0.9796992331       -3.3783373964
 C          5.4537904914        0.3834548144       -3.3690724658
 C          4.4372462088        0.8847157991       -2.5725325297
 C          3.6820765225        0.0388427390       -1.7843751189
 C          1.2959735853       -2.3948221221        0.5198696659
 C         -0.0317430987       -2.1691403064        0.8085272634
 C         -3.0678350394       -2.3766799975        0.5098406385
 C         -4.4533162173       -2.3410850302        0.5855611093
 C         -5.0901800571       -1.1413084949        0.2853950961
 C         -4.2969400091       -0.0040198816       -0.0083779981
 H         -5.0107265992        3.2193756781       -0.8506162197
 H         -2.5597252062        3.3084101167       -0.6932631988
 H         -0.4273378478        2.4883799610       -1.7737942171
 H          1.9250168868        2.8964449877       -1.2502904945
 H          5.0998008296        2.9169849339        2.6488611722
 H          6.4332614301        1.4157555950        4.0609731970
 H          6.0140706404       -1.0192615073        4.0324557618
 H          4.2447476874       -1.9357147692        2.5739216709
 H          2.9159268932       -0.4408925787        1.1548082926
 H          2.1977658256        4.6574932261        0.8001856192
 H          3.3300303724        6.6096119971       -0.1834261341
 H          5.6074717918        6.3858392420       -1.1101193130
 H          6.7460200538        4.1948123267       -1.0470258948
 H          5.6112480290        2.2395697517       -0.0738693928
 H          1.4038128997        1.0033201937        2.5527320560
 H         -0.9363446650        0.5530634329        1.9977296084
 H         -0.9364690175       -0.5728756835       -2.0216205806
 H          1.4078594170       -1.0152935658       -2.5676506484
 H          2.2010815506       -4.6575948791       -0.8319713377
 H          3.3208070676       -6.6164977902        0.1527758365
 H          5.5866941123       -6.3989514946        1.1091184633
 H          6.7260579442       -4.2078174631        1.0743378614
 H          5.6036741909       -2.2459769291        0.0999541559
 H          5.1395472019       -2.8978508201       -2.6204953894
 H          6.4856357506       -1.3822603289       -4.0039351084
 H          6.0433578624        1.0488454476       -3.9805086464
 H          4.2363352083        1.9460613309       -2.5568643504
 H          2.8956304563        0.4375144909       -1.1646518687
 H          1.9229193033       -2.8982395475        1.2410234828
 H         -0.4333153596       -2.4990770049        1.7552909353
 H         -2.5679362604       -3.3222153033        0.6689786409
 H         -5.0180010646       -3.2254272992        0.8350597815
