111
 energy: -173.696262468937 gnorm: 0.000186316384 xtb: 6.7.1 (edcfbbe)
N           -0.82195521107546        3.88277808744063       -0.00528197984607
C           -0.58132749398023        2.75211717683306       -0.00543635580354
C           -0.29154160841226        1.38986828309914       -0.00537021081384
C            1.05899563085430        0.94335216741619       -0.01155125902152
C            2.14606174200774        1.92638414481952        0.00979337644868
C            2.17733022797952        2.93550584206024        0.97239138163226
C            3.20588133666405        3.84968050454561        1.00080193396855
C            4.22986575136640        3.79100548517803        0.05264070521030
N            5.27077898170124        4.72194805603465        0.07632232370182
C            5.01080238251869        6.04635199412817        0.44177071857955
C            5.94035834372788        6.76869097405808        1.19157873339899
C            5.67765183008224        8.07641825119810        1.54906170622741
C            4.48910296293236        8.68170772074041        1.17297757369408
C            3.56128045215090        7.96721451691842        0.43181769948663
C            3.81573247287747        6.66094851365433        0.06389003752962
C            6.56861744851350        4.32725630689123       -0.26053993409657
C            7.41407580529595        5.19646538824894       -0.95213094624424
C            8.69621947136267        4.80286799089369       -1.28076968590098
C            9.15390510129903        3.54164286114974       -0.93394194267237
C            8.31679044617125        2.67349465363444       -0.25107177455082
C            7.03487990450532        3.05836531330721        0.08826323742819
C            4.19637017530466        2.78880790037776       -0.91923088068078
C            3.17253996827254        1.86879922370179       -0.93354065652454
C            1.34045149583502       -0.41364359000025       -0.01820415847375
C            2.68559343912480       -0.78831780129506        0.16156227344332
N            3.78592218262753       -1.05610343410402        0.36875328048163
C            0.30364470984836       -1.40746994053587       -0.00424007404660
C            0.60021422892566       -2.80372084898929       -0.00203197369097
C           -0.20851259209384       -3.73142498995015        0.69879472034519
C            0.07553279600627       -5.06860820499704        0.70307178754100
C            1.18601826196454       -5.56871452033703        0.00200246938980
N            1.47442217692647       -6.93167046678543        0.00373721110714
C            0.43431859213506       -7.86165923826946       -0.00167809865359
C           -0.74305150575210       -7.60062731707960       -0.70780006962877
C           -1.77258282829661       -8.51961979572997       -0.70206653474625
C           -1.64931232122776       -9.70909052590628       -0.00020878180828
C           -0.48360267760100       -9.97273221436237        0.70277228933299
C            0.55160684407890       -9.06002936303378        0.70773944470878
C            2.80198265885753       -7.36083119230858        0.01136405638222
C            3.77227317122244       -6.64349420625608        0.71627687593106
C            5.08570178265200       -7.06705604154361        0.71291269822381
C            5.45511310965999       -8.20661540901400        0.01464644579638
C            4.49654078670371       -8.92159329763824       -0.68714946311704
C            3.18047846012896       -8.50610930131378       -0.69447132981057
C            1.99895693592035       -4.66311571440138       -0.70071618210756
C            1.71641462673153       -3.32556198023935       -0.70027045028514
C           -1.04789947395082       -0.92170017867823        0.00849630746341
C           -2.12374412085639       -1.81183793944663       -0.17173771264192
N           -3.01918857954148       -2.50477123381214       -0.37975114946618
C           -1.34340837296147        0.43227537182302        0.00115768829196
C           -2.73657460510423        0.88736563990182       -0.01834798872562
C           -3.17781759928716        1.79762832841407       -0.97887657200186
C           -4.48948239822944        2.21409632677638       -1.00401056710990
C           -5.39899348502072        1.74239181552207       -0.05466865539228
N           -6.72876841693830        2.16908813413963       -0.07461723165300
C           -7.75242084489808        1.27923346514338        0.26311996330596
C           -7.66260940915489       -0.06853526081124       -0.08983978517666
C           -8.67539891558214       -0.94316353963744        0.25051986165026
C           -9.79112326154930       -0.49321134212373        0.93860128825634
C           -9.88564014860595        0.84407493845667        1.28957676520843
C           -8.87616577415326        1.72674766647731        0.95989393381330
C           -7.03155659515094        3.48546079619036       -0.43583412965253
C           -6.18863543026329        4.53237890761784       -0.05874444889758
C           -6.48945122980727        5.83001088249467       -0.42221965455799
C           -7.63075539739253        6.10681297229094       -1.15807152247610
C           -8.47144793306465        5.07104795947945       -1.53343550635284
C           -8.17761367213010        3.76874745252520       -1.18042247308479
C           -4.95861748981156        0.83901727567795        0.91488601509930
C           -3.64894430266090        0.41549852907163        0.92603929699756
H            1.40308133693734        2.98341376046043        1.72314281757489
H            3.23249911420974        4.60984642677494        1.76725529487415
H            6.86023971996402        6.29306828472673        1.49871388683723
H            6.40224378954865        8.62356728351175        2.13376363835850
H            4.28682398124968        9.70304081764536        1.45716984643579
H            2.63412738099915        8.43165062058145        0.13160931731614
H            3.09506836072195        6.10972415840486       -0.52150322725506
H            7.05367394607159        6.17412453522810       -1.23678108832484
H            9.33937165911293        5.48277605279034       -1.81966087699342
H           10.15587082231760        3.23729269054535       -1.19527762897436
H            8.66601465738407        1.69038454091977        0.02651429011431
H            6.38914976536777        2.38328973030943        0.62976561090424
H            4.97262509200688        2.74704116505647       -1.66883102102944
H            3.15065656198867        1.10929690094521       -1.70113706934259
H           -1.03731474134817       -3.37118570312421        1.28788237156992
H           -0.53481925655062       -5.74967238637569        1.27826233298960
H           -0.83482001376311       -6.68057042974092       -1.26523604911262
H           -2.67545422745991       -8.30851171423191       -1.25485753381605
H           -2.45656271017841      -10.42525282278183        0.00056577095993
H           -0.38400171989931      -10.89278924022733        1.25927123462245
H            1.45165844241539       -9.25787602264226        1.27118995147343
H            3.48319981670374       -5.76351442194302        1.27101485386677
H            5.82532910938470       -6.50697537746329        1.26480385675078
H            6.48317031937660       -8.53469492142863        0.01574081159346
H            4.77841595315668       -9.80479701019570       -1.24087475246867
H            2.43804716692932       -9.05299828894993       -1.25698377832815
H            2.83355547797159       -5.03971688839249       -1.27416478622987
H            2.32860143674235       -2.66170670326042       -1.29037423553538
H           -2.49161378770997        2.15763747540758       -1.73047083413435
H           -4.82474258160322        2.89881244680972       -1.76872078879527
H           -6.79973772227391       -0.42047218815529       -0.63528785132226
H           -8.59488881197374       -1.98246221314470       -0.03035494155547
H          -10.58132057441287       -1.18003540445984        1.20074525125297
H          -10.74803616160332        1.20148346752786        1.83258093942642
H           -8.94418640560741        2.76559773775284        1.24781180294242
H           -5.30369663634071        4.32085979720359        0.52266298663413
H           -5.83045976727060        6.63089154355381       -0.12261117556095
H           -7.86296177345247        7.12276389653427       -1.43866079572878
H           -9.35840319013651        5.27730961952338       -2.11399892279934
H           -8.82544539244197        2.96064126718107       -1.48703146688697
H           -5.64920369857283        0.48373091355388        1.66527093326662
H           -3.31829842781042       -0.27041226871222        1.69202003908251
