111
 energy: -173.769962502497 gnorm: 0.000122520144 xtb: 6.7.1 (edcfbbe)
N           -0.83689024098082        3.91132938727160        0.00043288073963
C           -0.59944986437434        2.78895103419275       -0.00283636047501
C           -0.30568209584204        1.40535811284654       -0.00612229974287
C            1.03301124078475        0.98547724336669        0.01508491613772
C            2.12992146103701        1.95489594613672        0.04967722626720
C            2.15034600458060        2.98163413911517        0.99287127826028
C            3.19496466949500        3.87658169262004        1.03526707032280
C            4.24712563714032        3.78732665002810        0.11922690984953
N            5.29895537318909        4.69315975661776        0.15583590605179
C            5.08249910674304        6.01718735042208        0.56699082789233
C            6.03260443457125        6.67443004712319        1.34688175624891
C            5.82404320822343        7.98228048784428        1.74016729180090
C            4.66762902789648        8.64963516055888        1.37117727069754
C            3.71943163189390        7.99909147365658        0.59872962597545
C            3.92272188529581        6.69434029235158        0.19281193130024
C            6.59236235224035        4.29315214736927       -0.21386574462665
C            7.41618873697911        5.15851955461940       -0.93169539574333
C            8.69370331137600        4.76837062724033       -1.28449813317537
C            9.16481520636481        3.51313155625988       -0.93631019604187
C            8.34814536626485        2.64896235081929       -0.22547153426522
C            7.07237098768855        3.03294519245040        0.13988265517752
C            4.21943622131436        2.76494688378987       -0.83386140466192
C            3.18427279340362        1.85890662280409       -0.85839183828192
C            1.30827148928321       -0.39026402323680        0.01549151854828
C            2.64704043588100       -0.82159043699880        0.16725365684078
N            3.72683368791765       -1.16660539021102        0.34378218918962
C            0.27801959564404       -1.34255324005181       -0.00989277664593
C            0.58341198618943       -2.77287001453459       -0.00991770039306
C           -0.06177148983211       -3.63894731279338        0.87306599066258
C            0.23562508154450       -4.98214318913184        0.88554985984034
C            1.17635132036625       -5.51138866119219       -0.00322757974922
N            1.47253569549508       -6.86733527692278        0.00203546667109
C            0.48777530240795       -7.80882114802572        0.33934738252641
C           -0.82734772033958       -7.64401829196647       -0.09279588867443
C           -1.78921364905370       -8.57789385738152        0.24079343811067
C           -1.45576899878687       -9.68929543482553        0.99750575602296
C           -0.14880019564343       -9.85972984923960        1.42365931834637
C            0.81860316410865       -8.92705319491928        1.10277282173488
C            2.76158219860999       -7.31438054716936       -0.32735681679068
C            3.88640989130536       -6.61054117447115        0.10031748963401
C            5.15137900616712       -7.06017713279834       -0.22561303747858
C            5.31490608843479       -8.21701673698710       -0.96992169134323
C            4.19987518012222       -8.92267235239221       -1.39129496116364
C            2.93037122731683       -8.47647273013774       -1.07819189694645
C            1.81301856945123       -4.64496487397008       -0.89709642312175
C            1.52834471577314       -3.29903709187486       -0.89105026924262
C           -1.05042511601237       -0.89136524239199       -0.03367279035381
C           -2.09819769596887       -1.82960096202055       -0.18579101248354
N           -2.94354758998173       -2.58495735604646       -0.36175192436878
C           -1.35813070164998        0.47751816700843       -0.02964378922075
C           -2.75390222058881        0.91901921655919       -0.06162149220582
C           -3.18848528804316        1.85476315311496       -0.99965861183193
C           -4.50525768777695        2.25291902132678       -1.03750832068273
C           -5.43035708117336        1.74255713455354       -0.12216036771811
N           -6.75770707188248        2.14923642457104       -0.15340711122904
C           -7.78066670952799        1.26083839847948        0.21217649108792
C           -7.71417278937793       -0.08374664123476       -0.15022868570802
C           -8.72775343708714       -0.95033526635065        0.21058886403391
C           -9.82207871124455       -0.49175468023918        0.92556304718765
C           -9.89460466681388        0.84468772118702        1.28259149862058
C           -8.88193906517636        1.71756272568136        0.93429842723688
C           -7.09218504048936        3.45169246631681       -0.55444133673326
C           -6.30220780506504        4.53507416005335       -0.17259395082289
C           -6.64132581284878        5.81458361344485       -0.56800577430225
C           -7.77186629379588        6.03488673332152       -1.33761915734316
C           -8.56247967126517        4.96171139662369       -1.71451531942010
C           -8.22706220825304        3.67737467776042       -1.33161041243779
C           -4.99135060515180        0.81243698801832        0.82468249014304
C           -3.67859299546388        0.40081088072949        0.84495185314374
H            1.35949392152077        3.05463470332696        1.72467650761837
H            3.20935070329706        4.64908501223769        1.78904123049827
H            6.93087668757148        6.15216853101894        1.64219609017686
H            6.56668178694376        8.48039965100411        2.34583789730697
H            4.50667101841051        9.67027920685375        1.68329565041762
H            2.81714362317200        8.51282492327795        0.30211570529578
H            3.18606228333282        6.19318606581764       -0.41776967194996
H            7.04671805534399        6.13451630899557       -1.21065769583318
H            9.32218104694185        5.44698320766438       -1.84215751330527
H           10.16229072830908        3.21062597955057       -1.21668179632560
H            8.70853365024763        1.67043656471076        0.05490207887307
H            6.44180753805415        2.36046598894957        0.70272855586341
H            5.01496837433412        2.69181733195670       -1.55980359835298
H            3.17289299413611        1.08733460363306       -1.61449691392395
H           -0.77477528110273       -3.24791013573984        1.58401355501173
H           -0.25287941115196       -5.63376394889784        1.59402496933963
H           -1.08827414930061       -6.78365055928881       -0.69140669408069
H           -2.80433215485759       -8.43941253711313       -0.10031208899171
H           -2.20952687204995      -10.41839363319063        1.25305787900826
H            0.11903411215279      -10.72118634744968        2.01745907255812
H            1.83589130322625       -9.05644192877684        1.44227138567813
H            3.76250978192862       -5.71374809823466        0.68942656202301
H            6.01476905491661       -6.50636155039734        0.11177390529769
H            6.30504074369659       -8.56683767493419       -1.21952755648481
H            4.31811564528729       -9.82347900841271       -1.97525628451520
H            2.06120014904359       -9.02294328871478       -1.41402943508841
H            2.52773101985838       -5.03956845162843       -1.60324941978129
H            2.01615045956832       -2.65149937617595       -1.60483151231841
H           -2.49562195265291        2.24399161597051       -1.73093436164572
H           -4.83131027903750        2.95817300533135       -1.78681423084019
H           -6.86714110617914       -0.44246029399326       -0.71635386962236
H           -8.66491950260361       -1.98935709128075       -0.07661905280678
H          -10.61370225991090       -1.17133813145789        1.20227317513749
H          -10.74216983583457        1.20995602777854        1.84357110110396
H           -8.93548663597971        2.75792592393640        1.22008518384968
H           -5.42551730015693        4.36766207549279        0.43570057598262
H           -6.02166131695108        6.64550297500886       -0.26533385992583
H           -8.03539448354462        7.03652423106198       -1.64146173934071
H           -9.44323011950691        5.12384553053151       -2.31822217292045
H           -8.83965689257130        2.84022893777889       -1.63290507527530
H           -5.68869002081708        0.42071618249249        1.54959262755698
H           -3.35576588027677       -0.30456502782051        1.59685109390645
