111
 energy: -173.696264580826 gnorm: 0.000206231973 xtb: 6.7.1 (edcfbbe)
N            0.64727731102099       -3.91983966344238        0.01861010289357
C            0.46137903122065       -2.77885710590934        0.01300556765065
C            0.23530287049473       -1.40465765810217        0.00651256617948
C            1.33068423963398       -0.49532509877213        0.00599824601733
C            2.70103618740607       -1.01296862031558       -0.01750781678914
C            3.09248297076870       -1.96016238119239       -0.96435551444049
C            4.38275472691240       -2.43853986733135       -0.99040971409114
C            5.32093152849560       -1.99193635291414       -0.05697961300246
N            6.62945123318257       -2.48043563460861       -0.07706030076820
C            6.86906454095026       -3.81798977913112       -0.40479762458460
C            8.00060526001329       -4.17432616570328       -1.14041904632381
C            8.23329303263521       -5.49775384371102       -1.45854157030771
C            7.34483880891756       -6.48285209739921       -1.05763370878009
C            6.21724083964451       -6.13348701880245       -0.33158691837948
C            5.97761666267113       -4.81417785217329       -0.00232475907931
C            7.69456672092280       -1.62840246223529        0.22894288265017
C            8.80185468765562       -2.10497032942792        0.93265421751899
C            9.85224994968233       -1.25913096843370        1.22943170686886
C            9.81535476697354        0.06985665769079        0.83839731305577
C            8.71574073142059        0.54898184214632        0.14411361081867
C            7.66228981621503       -0.28897345763130       -0.16341364167467
C            4.93129782890639       -1.04987959225119        0.89744414133003
C            3.64269104986640       -0.56651500802871        0.91089164668864
C            1.09547032616107        0.87065545123270        0.01027470934623
C            2.20750425505394        1.71318308260535       -0.18169445964104
N            3.12818680618817        2.36821403306802       -0.40140742770231
C           -0.23174867389029        1.41686526735141        0.00329856878957
C           -0.46555009954542        2.82524403487996        0.00313184032502
C           -1.55936319766951        3.39450618600504       -0.69321202820895
C           -1.78285536958875        4.74321497043993       -0.69506879429379
C           -0.92939358639352        5.61304396100147        0.00464045631576
N           -1.15840411413544        6.98726884465601        0.00541141061259
C           -2.46644786616331        7.47272126641602        0.01502908275319
C           -3.46453728919629        6.79867056263769        0.72385459641613
C           -4.75923335631638        7.27640055175940        0.72111748789510
C           -5.08213045189225        8.42797187441576        0.01950553055476
C           -4.09570040226298        9.10055524011490       -0.68557683148419
C           -2.79794339068607        8.63090692118738       -0.69330073525094
C           -0.07900979997907        7.87117043039373       -0.00428321641693
C            1.08468951615319        7.55708909448743       -0.71152289699229
C            2.15377162674532        8.42973788851046       -0.70910209519235
C            2.08410851430057        9.62489940971109       -0.00954449338873
C            0.93194817218949        9.94137704832262        0.69397236948768
C           -0.14260672445890        9.07532346083039        0.70216171279760
C            0.15988492539262        5.06574189246570        0.70359118102255
C            0.38510796088400        3.71730030713430        0.70029290854267
C           -1.31328501404841        0.47097571819021       -0.00493790050974
C           -2.63903173038402        0.90653295269807        0.17895261592573
N           -3.72537037657005        1.22447252164083        0.38983180331829
C           -1.09284760870092       -0.89737393515995        0.00172664462329
C           -2.22442797318053       -1.82929169116415        0.01899625720986
C           -2.30613726062219       -2.83984486948820        0.97695065361513
C           -3.37587064954091       -3.70601116095242        0.99697014596653
C           -4.39242884484858       -3.59540738387977        0.04561780038935
N           -5.47670856878115       -4.47580759007169        0.05996778845356
C           -6.75209306816930       -4.01380816070787       -0.27868305678920
C           -7.15795687078778       -2.72913272654818        0.08713407799109
C           -8.41736824085545       -2.27689985440442       -0.25336301366675
C           -9.29123298311694       -3.09257902761231       -0.95462580515716
C           -8.89322553909326       -4.36900613169675       -1.31898901659381
C           -7.63397560717935       -4.82984030445102       -0.98906841216706
C           -5.28447024174321       -5.81447144289511        0.41358934371661
C           -4.11562337619134       -6.48217511832215        0.04360514681104
C           -3.93002798845587       -7.80362157785586        0.39833386475254
C           -4.90153841568332       -8.48116909129322        1.11788406765035
C           -6.06406751901153       -7.82303858002503        1.48648118814511
C           -6.25772930864273       -6.49974020289076        1.14272327124138
C           -4.30931950750488       -2.59091586538537       -0.92085419500638
C           -3.24369756938346       -1.71971095182942       -0.92748510823901
H            2.38504117863461       -2.30077154415490       -1.70516300337545
H            4.67952573220057       -3.15291792281686       -1.74383384672707
H            8.68569248522368       -3.40596036417284       -1.46750935510373
H            9.10997604650563       -5.76043634250363       -2.03189504855592
H            7.52943235601223       -7.51560863932160       -1.31089102883678
H            5.52110710264134       -6.89441322918136       -0.01243971292325
H            5.10350145815450       -4.54663627870531        0.57231909592950
H            8.82508340964757       -3.13666488431322        1.25168832626252
H           10.70150815130185       -1.63842856639357        1.77820844931266
H           10.63760402048728        0.72784745662421        1.07458706322988
H            8.67984046667681        1.58198240713952       -0.16750199403391
H            6.81172676041064        0.08485229581139       -0.71359740500800
H            5.64421477324349       -0.71253794968444        1.63514101824238
H            3.35063256155576        0.14720379256929        1.66704872939095
H           -2.20168288346385        2.75736680308139       -1.28071982141351
H           -2.60154294256172        5.15530342770768       -1.26704228110635
H           -3.21151398159372        5.90891927871377        1.28062276291160
H           -5.52069509001712        6.74894842622042        1.27547670690244
H           -6.09579235799974        8.79816159361222        0.02059288265477
H           -4.34147186100690        9.99324155267813       -1.24130342928011
H           -2.03423355417874        9.14503466189266       -1.25822369561417
H            1.13514099086685        6.63264798736457       -1.26697832703589
H            3.04584285151989        8.17758562443911       -1.26224226533615
H            2.92231947189202       10.30457591684848       -0.01107620150562
H            0.87360561720615       10.86639236667122        1.24811390354673
H           -1.03244704374562        9.31418431993975        1.26594052118109
H            0.80100223761527        5.72010588863538        1.27631383446843
H            1.19912365784721        3.32173541822861        1.28740027640613
H           -1.53792871829723       -2.92687937377564        1.73035540415509
H           -3.44034259110443       -4.46805635497780        1.75930785779422
H           -6.48323265689229       -2.09483640053305        0.64242995852851
H           -8.72010120527621       -1.28235974177673        0.03772888776143
H          -10.27548455408913       -2.73572716987705       -1.21684366521542
H           -9.56502644904882       -5.00801863887073       -1.87275589205895
H           -7.31947965660929       -5.81927035505113       -1.28716420317859
H           -3.36128892452443       -5.96031414479976       -0.52605740010891
H           -3.02262137829931       -8.30910654217061        0.10412357500536
H           -4.75331164062577       -9.51470297586962        1.39108373385720
H           -6.82241499828787       -8.34114501059721        2.05461004897170
H           -7.15730210235658       -5.98361428273238        1.44453793564480
H           -5.08050446712216       -2.50920266362138       -1.67238550221470
H           -3.18377822719085       -0.95851575895591       -1.69137144891548
