  63
       -103.41261844
 C          3.6557417940        1.0369663354       -3.5054485688
 C          2.3138131521        1.1546857725       -3.2072557123
 C          1.7962766695        0.5702738162       -2.0612590328
 C          2.6200420894       -0.1308910155       -1.1913596663
 C          3.9767924152       -0.2663309186       -1.5143688824
 C          4.4860757431        0.3156893274       -2.6589328427
 O          4.8529040941       -0.9760373438       -0.7283503994
 C          4.3459592503       -1.5861004291        0.3942224192
 C          5.2245376748       -2.3269333567        1.1609488298
 C          4.7871172307       -2.9506755680        2.3214380936
 C          3.4702645031       -2.8191350545        2.7114238512
 C          2.5830617117       -2.0785722158        1.9447622945
 C          3.0017155042       -1.4644803931        0.7717513962
 N          2.1384053424       -0.7053835583       -0.0156639116
 C          0.7722353831       -0.5709670270        0.3397537779
 C         -0.0367998480       -1.6858793185        0.1427115437
 C         -1.4388110308       -1.6645535752        0.3330195628
 C         -2.4777938099       -2.5750763185       -0.1346745556
 C         -2.1663479075       -3.8912261306       -0.4829503461
 C         -3.1236358056       -4.7624717970       -0.9535825980
 C         -4.4366168523       -4.3332100455       -1.1009063044
 C         -4.7756604769       -3.0383790052       -0.7768486881
 C         -3.8329164695       -2.1306453588       -0.2873926290
 C         -4.2104090331       -0.7561640802        0.0205990052
 C         -5.3126371025        0.0329272150       -0.4279161271
 C         -5.3241742822        1.4084114676       -0.3460524659
 C         -4.2260780081        2.1492504163        0.1871357744
 C         -3.8260519991        3.5059905050       -0.0063409101
 C         -2.5323106692        3.9282460347        0.2089478256
 C         -1.4981876672        3.0497515717        0.6531791872
 C         -0.0477403685        3.1907978949        0.6400742582
 C          0.5386730336        4.4543398928        0.5355549658
 C          1.9049484593        4.6248842681        0.5440922197
 C          2.7342127439        3.5197261037        0.6784715380
 C          2.1900482757        2.2576961636        0.7685795851
 C          0.8098750805        2.0429594447        0.7265289347
 C          0.2487522723        0.6931410022        0.7568316516
 C         -1.0982173284        0.6506742147        1.0490048051
 C         -1.9385146452        1.7983959471        1.0097591316
 C         -3.2575194121        1.3609342066        0.7855085400
 C         -3.2523302840       -0.0440810459        0.7015876478
 C         -1.9092287897       -0.4804069620        0.8571228792
 H          4.0641552799        1.4936871201       -4.3932123568
 H          1.6539496500        1.7019380638       -3.8628335711
 H          0.7434757618        0.6605705345       -1.8418701440
 H          5.5363497352        0.1943491438       -2.8714082201
 H          6.2501530783       -2.4007508738        0.8364684106
 H          5.4808488303       -3.5271994674        2.9128456622
 H          3.1191146010       -3.2890483651        3.6171863538
 H          1.5572818606       -1.9713837416        2.2616998591
 H          0.4417663881       -2.5654972461       -0.2655387091
 H         -1.1494957470       -4.2337036272       -0.3594011395
 H         -2.8547874877       -5.7779537447       -1.2044498150
 H         -5.1907560964       -5.0147298287       -1.4659791556
 H         -5.8005647782       -2.7148692499       -0.8836434558
 H         -6.1380385805       -0.4509079039       -0.9310037675
 H         -6.1545035428        1.9458704191       -0.7834713279
 H         -4.5375767619        4.2073264071       -0.4204107836
 H         -2.2835406275        4.9479397021       -0.0492723874
 H         -0.1045382355        5.3195283143        0.4704434104
 H          2.3282784075        5.6153921123        0.4663397694
 H          3.8057327090        3.6465790456        0.7177159901
 H          2.8498855556        1.4170466623        0.9093781040
