63
 energy: -103.412221917848 gnorm: 0.000066224594 xtb: 6.7.1 (edcfbbe)
C            3.59098523306060       -0.96587010848044       -3.57472261045144
C            2.26194403272712       -0.65915290579802       -3.36833627769151
C            1.75056543399053       -0.58996469763923       -2.08082266983388
C            2.56674281118328       -0.83001774316039       -0.98450559512011
C            3.91731022513782       -1.13494894838339       -1.20162306514975
C            4.41987613268826       -1.20261424163067       -2.48601061545777
O            4.79275605664137       -1.37632705988959       -0.16818089706354
C            4.30044220265419       -1.29080811859798        1.11324951919125
C            5.18507343378802       -1.50966430109809        2.15091165836961
C            4.75101642704302       -1.43433005868840        3.46814374849170
C            3.43077011861576       -1.13879563672810        3.73820082199258
C            2.53681723822843       -0.91792547614465        2.70079381635315
C            2.95742506546163       -0.99225188334044        1.38013407874812
N            2.08561670493297       -0.76614864398579        0.31940719529137
C            0.71119354266710       -0.50203278525141        0.56754159575189
C           -0.13817482660048       -1.60150766659931        0.55879083064653
C           -1.54600236671834       -1.48742837662612        0.66973358324459
C           -2.60980375373990       -2.42744990906435        0.33784433373812
C           -2.34566874250395       -3.79573613212825        0.24030850318995
C           -3.32479459938229       -4.70035777284188       -0.10539163763426
C           -4.61280939141863       -4.25549718368207       -0.37649406581054
C           -4.90512608863336       -2.91200592669239       -0.29906673179022
C           -3.93916971137548       -1.96720808963640        0.05741031526731
C           -4.26505172081911       -0.54674432084412        0.09795788174590
C           -5.32282746781847        0.18632834419795       -0.52084504083347
C           -5.27897041411892        1.55275460327491       -0.69262244674868
C           -4.16269200903291        2.33770946655706       -0.27287333998452
C           -3.70262362787592        3.61999529338379       -0.70013727336894
C           -2.39659221392772        4.02440076451828       -0.53197895753434
C           -1.40869287403062        3.20235214383175        0.09108414620592
C            0.04619560343545        3.27557493223008        0.07185829580007
C            0.68482100983863        4.46889367302903       -0.27478507505651
C            2.05675771758162        4.57816378345486       -0.30537216494830
C            2.83896562048952        3.47964342269442        0.02383496135634
C            2.24286144055498        2.28443666265359        0.36075258974408
C            0.85371778959297        2.12953738555815        0.38440402863653
C            0.23470664219334        0.84101847248658        0.68978277422633
C           -1.11953849540840        0.90839746509733        0.94308739265323
C           -1.90884707238697        2.05820319291760        0.66293097466360
C           -3.24098369194964        1.63791220737624        0.48752554174326
C           -3.29381525839395        0.24295560339037        0.66539630794281
C           -1.97485219648210       -0.20749762248834        0.94205520441708
H            3.99303106184519       -1.02240554286994       -4.57407279441830
H            1.60813475418598       -0.47033584588605       -4.20600983104225
H            0.71019936007394       -0.34835910593668       -1.92382615651050
H            5.46311214818463       -1.44229105442534       -2.61676503509389
H            6.21123878998514       -1.73791223767470        1.91070625299382
H            5.45045413645249       -1.60678109038876        4.27097536118132
H            3.08246580939896       -1.07597456868791        4.75773503855864
H            1.50449397189290       -0.68469744242188        2.91287918967775
H            0.31619227432679       -2.56295736959073        0.36305919506027
H           -1.34885350157487       -4.14860592496271        0.45995188372326
H           -3.09275542122889       -5.75352011775867       -0.16280640248813
H           -5.38394403548229       -4.96240472323479       -0.64489694010284
H           -5.91094430575637       -2.57465771746371       -0.50141757353777
H           -6.15651369100416       -0.35093032261534       -0.95064904778660
H           -6.07652249286424        2.03094809216106       -1.24485653084855
H           -4.37609391547706        4.26009796706905       -1.25366960766144
H           -2.10031033583230        4.96909349227836       -0.96560644465453
H            0.07803852626727        5.33246952461211       -0.50371572425863
H            2.52093060310778        5.51638238201880       -0.57103111535063
H            3.91579065677117        3.55989632377254        0.02240090078880
H            2.87233264683044        1.45694947477643        0.64224774682231
