63
 energy: -103.339705926198 gnorm: 0.000081087976 xtb: 6.7.1 (edcfbbe)
C            3.74236021072901        1.48804710496705       -3.16133383133415
C            2.39240074259947        1.59754523325089       -2.86988622129206
C            1.83298685844475        0.85597478216745       -1.84773505443284
C            2.62086268194419       -0.00124975486812       -1.08065824377707
C            3.97545466034216       -0.14717595644956       -1.42159198459985
C            4.52893664037107        0.60074563790178       -2.44820489727556
O            4.79513714493683       -1.03484739570609       -0.78421236393745
C            4.24987555535539       -1.80853889884257        0.19927790302641
C            5.08006904846340       -2.73363523396779        0.81171882387382
C            4.60136192186738       -3.51962446336607        1.84578595918427
C            3.29726205674361       -3.35894879319330        2.28471829436775
C            2.46266549246464       -2.43754231888705        1.68124473732413
C            2.91239327978386       -1.66840552903633        0.60755237349848
N            2.09912746971052       -0.73472648049625       -0.02023807551213
C            0.76182126037365       -0.57041289153561        0.38259191377096
C           -0.08855837221280       -1.71803249109576        0.17953165626783
C           -1.46354682980981       -1.66369246023070        0.33422733346988
C           -2.52837404164780       -2.56147379428597       -0.12993079342738
C           -2.24576670740919       -3.89150189423170       -0.42347806078300
C           -3.21682928770081       -4.76017296735075       -0.89023194284584
C           -4.50969735196859       -4.30215988486036       -1.08182206193108
C           -4.82231439305116       -2.98641487959475       -0.80277982790464
C           -3.86900916172296       -2.08480135831282       -0.32239452208005
C           -4.22397596535019       -0.69830692509741       -0.05838384218897
C           -5.25408486269019        0.11377523232069       -0.55553158515716
C           -5.23538493710486        1.51073406650812       -0.46754140987266
C           -4.13379174961010        2.23211471227107        0.08747401509941
C           -3.70696402618318        3.58339722065124       -0.07363835481714
C           -2.40891295800939        3.98851447388819        0.20222114461504
C           -1.41507512793834        3.10619259007899        0.68739851551614
C            0.03049019960472        3.20781712820792        0.73201671540282
C            0.66358634958286        4.45498546772254        0.68119461635976
C            2.03075470861107        4.58491800830362        0.76471024262890
C            2.82162901376003        3.45564202443807        0.93103386774166
C            2.23433937593916        2.20851199829985        0.95950006972418
C            0.85645743363628        2.03393371973856        0.82664291298315
C            0.25999961881027        0.69473653405383        0.78206051575332
C           -1.09333216142618        0.68702567034979        1.05616594942615
C           -1.89528101583443        1.83961920157708        1.01306093309650
C           -3.20718777971548        1.42600044399677        0.72599260059434
C           -3.23431196300312        0.00852416220424        0.64899637289257
C           -1.94099022348610       -0.44762152810365        0.83505082421226
H            4.18039506471173        2.07539713263816       -3.95248627742398
H            1.76529583982903        2.26260776368117       -3.44217617811870
H            0.77766686869997        0.93268782310383       -1.64384559945948
H            5.57551121317581        0.46788059932012       -2.67046974484400
H            6.09809349335608       -2.81382185385978        0.46616902174272
H            5.25192821120073       -4.23925573000883        2.31660589367669
H            2.92643541211386       -3.94690382642840        3.10961954558992
H            1.45630822092282       -2.30058376896670        2.04283916731650
H            0.38710164759575       -2.58193958160532       -0.26375964583690
H           -1.23986703263211       -4.25574066595825       -0.27010376351605
H           -2.96491386742028       -5.78875186997899       -1.10261380800103
H           -5.27483152206023       -4.97272025331535       -1.44530742202512
H           -5.83621519268723       -2.64062699735653       -0.94101595926021
H           -6.06941792209749       -0.33390638776977       -1.10794478536446
H           -6.04549042025389        2.06109311672994       -0.92583738242248
H           -4.38654099435636        4.29843531382984       -0.51667840373103
H           -2.13955017208058        5.00594932807724       -0.04753598108882
H            0.04845642264786        5.33914840438485        0.60054174984378
H            2.48618083483415        5.56387947417060        0.72756183054107
H            3.89175409899767        3.55067033539369        1.04186946377220
H            2.86191550816769        1.34537393032294        1.12775630399446
