  58
        -88.05806435
 C          6.5017355873        2.2875665655       -0.7533765242
 C          5.6715168237        1.1022414476       -0.3747337891
 N          6.3282766968        0.0100226528       -0.0008393959
 C          5.6832160041       -1.0886855159        0.3741658268
 C          6.5265426070       -2.2637191147        0.7560909359
 C          4.2926524410       -1.1491016412        0.3979783516
 C          3.7285953286       -2.3956010080        0.6966797941
 N          3.3366645416       -3.4568374603        0.9185894609
 C          3.5089987972       -0.0060814483       -0.0025031526
 C          2.0924319060       -0.0130640980       -0.0077499776
 C          1.3415957439       -0.8198764684        0.8957015891
 C         -0.0224536589       -0.8225123643        0.8907785994
 C         -0.7388175424       -0.0119339855       -0.0091502483
 N         -2.1481944079       -0.0051154620       -0.0048300947
 C         -2.8155631594        1.1693622411        0.2866448936
 C         -2.0845541363        2.3127377446        0.6493933573
 C         -2.7186129894        3.5057948609        0.9070438169
 C         -4.1011398937        3.5841016720        0.8306190246
 C         -4.8304598778        2.4480281866        0.5316000128
 C         -4.2188406103        1.2305373472        0.2665047892
 C         -5.0722874880        0.0091961568        0.0088494179
 C         -5.9591326080        0.2681435399       -1.2245965771
 C         -5.9483710144       -0.2412579883        1.2516525855
 C         -4.2333005352       -1.2201019600       -0.2580896090
 C         -4.8589802872       -2.4314153347       -0.5186333309
 C         -4.1434015068       -3.5738283099       -0.8263876253
 C         -2.7609612239       -3.5085512424       -0.9161652420
 C         -2.1130601212       -2.3220981770       -0.6625361590
 C         -2.8297779029       -1.1723969098       -0.2913932003
 C         -0.0210023218        0.7939111881       -0.9121967038
 C          1.3428716335        0.7891682731       -0.9165099325
 C          4.2805614581        1.1468901145       -0.3984357948
 C          3.7013575667        2.3885379683       -0.6885818111
 N          3.2968259923        3.4469263995       -0.9012454911
 H          6.2748762667        3.1331724474       -0.1051536405
 H          6.2884313839        2.5912833017       -1.7774636181
 H          7.5545421048        2.0350790433       -0.6629468568
 H          6.3106968668       -3.1130066935        0.1088982349
 H          7.5764798371       -1.9990627399        0.6669002405
 H          6.3151880276       -2.5682913928        1.7803436385
 H          1.8616947672       -1.3989062045        1.6412048853
 H         -0.5698257801       -1.4113097064        1.6130174258
 H         -1.0120895520        2.2531788769        0.7368499876
 H         -2.1353621433        4.3729072735        1.1747459472
 H         -4.6082436542        4.5165609943        1.0240083793
 H         -5.9070896308        2.5171323452        0.5103036293
 H         -6.6022819684       -0.5837075293       -1.4247476461
 H         -5.3356095957        0.4411958093       -2.0994592952
 H         -6.5874482007        1.1406911591       -1.0724717216
 H         -6.5820722223        0.6163802789        1.4575481388
 H         -5.3173214512       -0.4189341897        2.1202399632
 H         -6.5857748252       -1.1086339234        1.1067585484
 H         -5.9359012074       -2.4904207110       -0.4866329549
 H         -4.6611323372       -4.5011562659       -1.0162326932
 H         -2.1889021103       -4.3808468887       -1.1911915541
 H         -1.0409168510       -2.2719232206       -0.7599281818
 H         -0.5675409333        1.3818597864       -1.6357838396
 H          1.8641750678        1.3640565879       -1.6644538634
  58
        -88.05797042
 C          6.5616302351        2.2375529070       -0.6820477305
 C          5.6991795788        1.0673066868       -0.3297276320
 N          6.3263151734       -0.0383164274        0.0557620911
 C          5.6525002665       -1.1273926750        0.4069950119
 C          6.4630283631       -2.3224123226        0.7972610658
 C          4.2612053547       -1.1607863298        0.3955051766
 C          3.6651951451       -2.3994114278        0.6626572787
 N          3.2385783354       -3.4562637799        0.8367740201
 C          3.5083782638        0.0015318438       -0.0094990666
 C          2.0917697370        0.0230497534       -0.0214538464
 C          1.3261633069       -0.7746867299        0.8775554911
 C         -0.0371675561       -0.7686792139        0.8579603356
 C         -0.7392825101        0.0465372881       -0.0496804557
 N         -2.1486352076        0.0418217903       -0.0566802268
 C         -2.8395503655        1.2010390026        0.2409705463
 C         -2.1324429839        2.3745484968        0.5498127940
 C         -2.7944962987        3.5510077871        0.8142408222
 C         -4.1807821242        3.5817633547        0.8016206123
 C         -4.8836864059        2.4166491207        0.5560690883
 C         -4.2439896229        1.2157861810        0.2811753279
 C         -5.0673277980       -0.0390441560        0.0929962611
 C         -6.0600802267        0.1753220265       -1.0655428642
 C         -5.8300202651       -0.3154656536        1.4035133356
 C         -4.2045419194       -1.2370700569       -0.2319763481
 C         -4.8003202416       -2.4680899299       -0.4687390282
 C         -4.0623072592       -3.5826463605       -0.8226132196
 C         -2.6893808191       -3.4684825148       -0.9833301044
 C         -2.0706107324       -2.2629752720       -0.7485903999
 C         -2.8066999562       -1.1421987178       -0.3294739314
 C         -0.0072499807        0.8493263532       -0.9433467302
 C          1.3572894123        0.8362685541       -0.9326614462
 C          4.3102969549        1.1384931660       -0.3888751746
 C          3.7637077567        2.3886273887       -0.7003969518
 N          3.3867283818        3.4541190491       -0.9346652660
 H          7.6068042040        1.9582494530       -0.5822962180
 H          6.3475329069        3.0786874059       -0.0235802002
 H          6.3680702739        2.5615567527       -1.7036969420
 H          6.2517503639       -3.1587315426        0.1317877929
 H          7.5198045410       -2.0761519005        0.7433804579
 H          6.2150955546       -2.6368620603        1.8102370787
 H          1.8342993177       -1.3560853093        1.6295615589
 H         -0.5965393837       -1.3562603579        1.5718790993
 H         -1.0558950928        2.3523818074        0.5910744659
 H         -2.2296378424        4.4421908205        1.0387029589
 H         -4.7100124664        4.4999417330        1.0036601056
 H         -5.9617521291        2.4486463685        0.5881638645
 H         -6.6794718538       -0.7041775630       -1.2136803381
 H         -5.5170639455        0.3726824282       -1.9876118045
 H         -6.7136570499        1.0185920830       -0.8642751099
 H         -5.1249147830       -0.4661607424        2.2185968464
 H         -6.4438722945       -1.2067850927        1.3112549572
 H         -6.4753030704        0.5200637003        1.6585716230
 H         -5.8710889386       -2.5659902795       -0.3785177882
 H         -4.5562289004       -4.5266604349       -0.9920206684
 H         -2.1026372297       -4.3178353045       -1.2962811800
 H         -1.0068842261       -2.1741926444       -0.8974461554
 H         -0.5409577376        1.4398530901       -1.6743935159
 H          1.8904199666        1.4114925086       -1.6719708470
  58
        -88.05788354
 C          6.5710513359        2.2351052655       -0.6423307718
 C          5.7028342820        1.0653475706       -0.3020555605
 N          6.3238828226       -0.0409251422        0.0915938416
 C          5.6446174346       -1.1312303814        0.4286985132
 C          6.4491140057       -2.3277299491        0.8273056995
 C          4.2536155125       -1.1641993597        0.3956030617
 C          3.6505210072       -2.4040913288        0.6406130502
 N          3.2253382301       -3.4607369862        0.8192047610
 C          3.5073247559        0.0005641704       -0.0144177630
 C          2.0910667573        0.0241064746       -0.0368990466
 C          1.3195160911       -0.7745507256        0.8560658372
 C         -0.0433788623       -0.7638257610        0.8310424581
 C         -0.7397620046        0.0558724663       -0.0775500820
 N         -2.1490462186        0.0531839979       -0.0847048375
 C         -2.8424938255        1.2098415305        0.2176052129
 C         -2.1389025329        2.3915964906        0.5013683732
 C         -2.8050653002        3.5646485220        0.7710258100
 C         -4.1914238343        3.5833643286        0.7901618219
 C         -4.8894644332        2.4101790571        0.5705594602
 C         -4.2458536877        1.2130315615        0.2887311171
 C         -5.0625312903       -0.0507215937        0.1337697339
 C         -6.1016245694        0.1497354944       -0.9858999664
 C         -5.7704494790       -0.3316740541        1.4740078601
 C         -4.1992994602       -1.2402764882       -0.2200536192
 C         -4.7899128828       -2.4759975893       -0.4448020421
 C         -4.0510278770       -3.5825534032       -0.8217156854
 C         -2.6836421175       -3.4556670757       -1.0173166545
 C         -2.0693359968       -2.2461243631       -0.7917961006
 C         -2.8050170631       -1.1336944682       -0.3500271673
 C         -0.0016758625        0.8551493190       -0.9692589172
 C          1.3628931209        0.8388030807       -0.9519314757
 C          4.3148614226        1.1375469523       -0.3822259536
 C          3.7729308403        2.3885201285       -0.7030280355
 N          3.4009250839        3.4527331736       -0.9446746804
 H          6.3266446312        3.0872143706       -0.0092494527
 H          6.4148972098        2.5378834924       -1.6769944091
 H          7.6134521398        1.9646973949       -0.4986357922
 H          6.2696734017       -3.1518455781        0.1375933908
 H          7.5052128748       -2.0730586790        0.8168705152
 H          6.1658121095       -2.6647139947        1.8235018807
 H          1.8230695166       -1.3603674532        1.6078084547
 H         -0.6078264663       -1.3512833705        1.5411058981
 H         -1.0615098079        2.3793130599        0.5174820135
 H         -2.2429515410        4.4625686813        0.9749548497
 H         -4.7240764450        4.4980904849        0.9989116446
 H         -5.9665096222        2.4325248143        0.6311044219
 H         -6.7570079779        0.9858246879       -0.7615456055
 H         -6.7166230456       -0.7368597266       -1.1070508699
 H         -5.5974322484        0.3503076756       -1.9291822802
 H         -5.0329301175       -0.4708640787        2.2621552537
 H         -6.3761332468       -1.2308710089        1.4076129462
 H         -6.4155178902        0.4973204900        1.7506204653
 H         -5.8569913583       -2.5841908053       -0.3267472326
 H         -4.5410727166       -4.5301347302       -0.9825266456
 H         -2.0978451288       -4.2981783360       -1.3499282919
 H         -1.0102938938       -2.1467631919       -0.9661510113
 H         -0.5300764656        1.4443521542       -1.7052458360
 H          1.9010999660        1.4104393268       -1.6903325313
  58
        -88.05778448
 C          6.5200527845        2.2576307163       -0.7950661109
 C          5.6799357871        1.0850385265       -0.3982392678
 N          6.3251341478       -0.0098894030       -0.0216619267
 C          5.6744047442       -1.1082642972        0.3565693197
 C          6.5340935900       -2.2717824695        0.7351306164
 C          4.2854336968       -1.1553509525        0.3834734947
 C          3.6818640147       -2.3909445279        0.6556106793
 N          3.2343879133       -3.4356674740        0.8488920066
 C          3.5113359001        0.0004907066       -0.0032878101
 C          2.0941031917        0.0106387779        0.0216843594
 C          1.3548884553       -0.7748005141        0.9523478463
 C         -0.0096489923       -0.7827448965        0.9602062570
 C         -0.7358782383        0.0057734813        0.0500217501
 N         -2.1460542967       -0.0048894315        0.0480118497
 C         -2.8256388103        1.1647815940        0.3273998740
 C         -2.1079900824        2.3043311733        0.7269546280
 C         -2.7515625851        3.4942588697        0.9751378378
 C         -4.1304153857        3.5735404578        0.8474303020
 C         -4.8482180797        2.4411351066        0.5088676644
 C         -4.2271867111        1.2256353136        0.2570127728
 C         -5.0678702465        0.0073191817       -0.0513395707
 C         -5.8767321520        0.2723015999       -1.3364303267
 C         -6.0191861615       -0.2421703750        1.1348396086
 C         -4.2185191071       -1.2244922055       -0.2715677908
 C         -4.8335403112       -2.4374546267       -0.5497254785
 C         -4.1066176357       -3.5827165999       -0.8178728081
 C         -2.7216688288       -3.5190346985       -0.8486936916
 C         -2.0840025672       -2.3302596313       -0.5799989972
 C         -2.8145738744       -1.1767434715       -0.2507975980
 C         -0.0295954836        0.8091050992       -0.8636148753
 C          1.3346179894        0.8079026737       -0.8818214922
 C          4.2881234919        1.1442273278       -0.4143473540
 C          3.7198775662        2.3873724559       -0.7164557513
 N          3.3252339116        3.4465069869       -0.9436558072
 H          6.2783750715        3.1247870712       -0.1817145072
 H          6.3306794166        2.5257425912       -1.8339973989
 H          7.5704400342        2.0077477282       -0.6735132896
 H          7.2367653663       -2.4818183882       -0.0696037551
 H          7.1157157968       -2.0171282367        1.6208131136
 H          5.9388508749       -3.1568909890        0.9395060369
 H          1.8839174513       -1.3342086795        1.7067272708
 H         -0.5481265458       -1.3596600024        1.6986251529
 H         -1.0390352928        2.2420327196        0.8505522312
 H         -2.1794155210        4.3585605979        1.2742641406
 H         -4.6445068850        4.5041594301        1.0310251874
 H         -5.9230160635        2.5119810272        0.4438681349
 H         -6.5118604854        1.1458139881       -1.2186544905
 H         -6.5074192238       -0.5785532111       -1.5785715788
 H         -5.2005025633        0.4477937355       -2.1713665318
 H         -5.4434755893       -0.4279659008        2.0393430272
 H         -6.6530038822       -1.1037888364        0.9479200968
 H         -6.6590540123        0.6182778321        1.3059762582
 H         -5.9108614398       -2.4953748615       -0.5647207512
 H         -4.6167643133       -4.5109652821       -1.0229554757
 H         -2.1387813017       -4.3939853326       -1.0904684783
 H         -1.0086664135       -2.2826819844       -0.6325678595
 H         -0.5847982202        1.3922333734       -1.5844250703
 H          1.8469769372        1.3815056696       -1.6369797922
  58
        -88.05694968
 C          6.5294509274        1.5470264244       -1.8150687914
 C          5.6828675783        0.7356493795       -0.8859520153
 N          6.3246401396       -0.0084103664        0.0073150836
 C          5.6680265301       -0.7506919056        0.8911085856
 C          6.4979990223       -1.5683864823        1.8296757303
 C          4.2767821827       -0.7791319392        0.9285282900
 C          3.7045597492       -1.7021960928        1.8135536731
 N          3.3211161619       -2.4947031587        2.5570606154
 C          3.5060550416        0.0017587034       -0.0090039144
 C          2.0883715616        0.0123635572       -0.0087074020
 C          1.3399241583       -0.2058126409        1.1835174021
 C         -0.0245984602       -0.1836789762        1.1880998346
 C         -0.7406567720        0.0165851584       -0.0052009143
 N         -2.1528512788        0.0110656182       -0.0034959624
 C         -2.8288424055        0.9932066217        0.6920913958
 C         -2.1053663224        2.0254817553        1.3117112682
 C         -2.7469556543        2.9992722075        2.0410065220
 C         -4.1290702460        2.9781604748        2.1559138843
 C         -4.8511335311        1.9961411553        1.5026388380
 C         -4.2320491021        1.0017480028        0.7579496210
 C         -5.0761129106       -0.0089339067        0.0145225310
 C         -5.9681962097        0.7475302213       -0.9890892349
 C         -5.9471075315       -0.7760971831        1.0283366041
 C         -4.2274603884       -1.0081919933       -0.7391340916
 C         -4.8426606946       -2.0123206358       -1.4739585057
 C         -4.1159570968       -2.9843285987       -2.1366810407
 C         -2.7321816529       -2.9848795132       -2.0418618944
 C         -2.0944037050       -2.0019943833       -1.3214281581
 C         -2.8237031650       -0.9798780835       -0.6920001444
 C         -0.0267402070        0.2209524231       -1.1990406240
 C          1.3381369109        0.2405767834       -1.1977738272
 C          4.2923624047        0.7714747350       -0.9422844184
 C          3.7392187328        1.6819812231       -1.8518488469
 N          3.3671494101        2.4764354419       -2.5994598105
 H          6.2910351318        1.3148459175       -2.8527473436
 H          7.5782638893        1.3338715360       -1.6254783660
 H          6.3445415759        2.6107972922       -1.6642219904
 H          7.5509327777       -1.3792311424        1.6395781117
 H          6.2648773083       -1.3178108234        2.8637725966
 H          6.2908995300       -2.6294478442        1.6933989304
 H          1.8620723560       -0.3588912783        2.1137105382
 H         -0.5707556751       -0.3483960609        2.1059233270
 H         -1.0336323306        2.0599111458        1.2020514718
 H         -2.1714061963        3.7801666601        2.5134649387
 H         -4.6418584446        3.7338384007        2.7303918928
 H         -5.9277707307        2.0143796451        1.5733602285
 H         -6.6009931080        1.4677359984       -0.4784738082
 H         -6.6071756127        0.0576516285       -1.5329132167
 H         -5.3485029599        1.2820668592       -1.7067262398
 H         -5.3124059234       -1.3037744750        1.7378098559
 H         -6.5773505652       -1.5033605918        0.5247234061
 H         -6.5879482141       -0.0946146463        1.5804014747
 H         -5.9197500328       -2.0424773363       -1.5346926589
 H         -4.6257806038       -3.7451999599       -2.7071765735
 H         -2.1519490158       -3.7562702958       -2.5238459214
 H         -1.0209963188       -2.0227698634       -1.2252414710
 H         -0.5747084164        0.3885064197       -2.1153431642
 H          1.8583502697        0.3967531029       -2.1285631044
  58
        -88.05669091
 C          6.5114123693        1.5696803427       -1.8181849453
 C          5.6750841537        0.7578206193       -0.8801397403
 N          6.3229256280        0.0450673164        0.0303565001
 C          5.6776933288       -0.7070061054        0.9183951341
 C          6.5404742933       -1.4632946180        1.8775343377
 C          4.2889200106       -0.7743859882        0.9370043672
 C          3.7062771448       -1.7072027654        1.8064695819
 N          3.2843832704       -2.5204743380        2.5059350851
 C          3.5095544670       -0.0148572010       -0.0127947961
 C          2.0912839306       -0.0149227154       -0.0102561126
 C          1.3458678849       -0.2150048236        1.1868321059
 C         -0.0187635205       -0.1964875893        1.1939283409
 C         -0.7384866787       -0.0116522929        0.0003301888
 N         -2.1501675555       -0.0060748744        0.0054527509
 C         -2.8177086168        0.9814287136        0.7023644624
 C         -2.0863642580        2.0047230854        1.3272941509
 C         -2.7200962595        2.9798146392        2.0617729145
 C         -4.1021073247        2.9706740379        2.1753892446
 C         -4.8317707643        1.9999307161        1.5144197365
 C         -4.2207411626        1.0040455341        0.7650061582
 C         -5.0737352182        0.0104913218        0.0090545535
 C         -5.9487051417        0.7880565857       -0.9935507046
 C         -5.9616747275       -0.7542075585        1.0100141663
 C         -4.2340470016       -0.9946510805       -0.7465428496
 C         -4.8579047024       -1.9841199224       -1.4936653262
 C         -4.1403942022       -2.9638580568       -2.1549167611
 C         -2.7581222322       -2.9888426329       -2.0439484148
 C         -2.1118434579       -2.0195752293       -1.3127496582
 C         -2.8305532754       -0.9873934845       -0.6877554137
 C         -0.0272013165        0.1730181264       -1.1982558278
 C          1.3376721731        0.1906103937       -1.2009801114
 C          4.2840494448        0.7592624920       -0.9521954010
 C          3.7189623028        1.6454082654       -1.8779902911
 N          3.3424623105        2.4154212184       -2.6502047464
 H          6.3276168263        1.2702078408       -2.8492816043
 H          7.5620679694        1.4258774630       -1.5818596646
 H          6.2614895335        2.6266165370       -1.7328635725
 H          5.9808723611       -2.2415148954        2.3872547980
 H          7.3812772164       -1.9011707969        1.3441264542
 H          6.9423075925       -0.7742599830        2.6202228228
 H          1.8701556759       -0.3499132387        2.1185114188
 H         -0.5619510336       -0.3490152885        2.1155836024
 H         -1.0146033579        2.0329938998        1.2164813092
 H         -2.1382003226        3.7535899988        2.5377983863
 H         -4.6085595230        3.7266052507        2.7553243238
 H         -5.9081892409        2.0265314201        1.5851259452
 H         -6.5877576626        0.1120042583       -1.5538904112
 H         -5.3169180184        1.3273499328       -1.6967437852
 H         -6.5806360594        1.5063190516       -0.4795217823
 H         -5.3391923700       -1.3024351547        1.7144915476
 H         -6.6029903947       -1.4633096808        0.4949847901
 H         -6.5920676707       -0.0690187445        1.5690638199
 H         -5.9347484519       -1.9995143461       -1.5609341874
 H         -4.6567588029       -3.7147236047       -2.7324559556
 H         -2.1858170190       -3.7692646778       -2.5208454524
 H         -1.0400731528       -2.0586809564       -1.2055409352
 H         -0.5771828798        0.3275357164       -2.1156523426
 H          1.8549555716        0.3283049599       -2.1362254960
  58
        -88.05568145
 C          6.5087738442        2.2541157640       -0.6136061423
 C          5.6656734339        1.0683237991       -0.2651509478
 N          6.3080814287       -0.0221602246        0.1368848064
 C          5.6497551020       -1.1179963617        0.4975374489
 C          6.4796536460       -2.2895316680        0.9175774364
 C          4.2590989234       -1.1790435882        0.4709994825
 C          3.6860617390       -2.4238372230        0.7592546319
 N          3.2951567728       -3.4833872071        0.9909366970
 C          3.4907541940       -0.0394220380        0.0335488027
 C          2.0757224987       -0.0396021076       -0.0285261781
 C          1.2793231074       -0.8413717961        0.8395249930
 C         -0.0833351008       -0.8095426830        0.7921632646
 C         -0.7538318199        0.0378673334       -0.1101357871
 N         -2.1615483371        0.0634753306       -0.1137043643
 C         -2.8543211315        1.2368119607        0.1169442567
 C         -2.1726095892        2.4579774063        0.2129954252
 C         -2.8654687325        3.6409171712        0.3410230870
 C         -4.2500115806        3.6272902311        0.3924823855
 C         -4.9242216745        2.4171495520        0.3917602390
 C         -4.2543527434        1.2095905131        0.2779805521
 C         -4.9474837496       -0.1198641057        0.4974155251
 C         -6.4374035312       -0.0688229437        0.1488949028
 C         -4.8057686147       -0.4357724810        2.0062195910
 C         -4.2203179447       -1.2142435985       -0.2517885280
 C         -4.8466014226       -2.3792964329       -0.6659200503
 C         -4.1440643679       -3.4078421452       -1.2713668248
 C         -2.7795999203       -3.2819886401       -1.4805130573
 C         -2.1319054306       -2.1332856548       -1.0871314982
 C         -2.8347981193       -1.0946021105       -0.4599453500
 C          0.0096688132        0.8034073713       -1.0104639735
 C          1.3725569855        0.7633784046       -0.9733021146
 C          4.2765614530        1.1128523197       -0.3376616403
 C          3.7067730824        2.3533092110       -0.6501957429
 N          3.3059651554        3.4109583891       -0.8735168617
 H          7.5577799627        1.9686139530       -0.5992188948
 H          6.3461406260        3.0565550720        0.1077859062
 H          6.2460097134        2.6390896557       -1.5991374271
 H          6.2049231846       -2.6134065124        1.9204698842
 H          6.3171850189       -3.1302988754        0.2438561912
 H          7.5301658702       -2.0125875748        0.9003281703
 H          1.7619588244       -1.4464753475        1.5892280326
 H         -0.6672593064       -1.4009745859        1.4829614557
 H         -1.0954844554        2.4742872085        0.1934359421
 H         -2.3240586244        4.5719765674        0.4027026916
 H         -4.8034468149        4.5501004596        0.4716441412
 H         -5.9963680969        2.4326520343        0.4947658160
 H         -6.9451451618        0.6806816644        0.7481503391
 H         -6.9158127034       -1.0179858336        0.3706678330
 H         -6.5788332412        0.1615300114       -0.9046124325
 H         -3.7577127752       -0.4792466704        2.2938464454
 H         -5.2657934065       -1.3956069485        2.2299454004
 H         -5.2927226504        0.3370714162        2.5961465275
 H         -5.9059718560       -2.5066115395       -0.5171677639
 H         -4.6633309515       -4.3012753167       -1.5815480049
 H         -2.2237072620       -4.0729120353       -1.9592081891
 H         -1.0762600178       -2.0195706743       -1.2758285414
 H         -0.4970753000        1.3763122538       -1.7740143063
 H          1.9303913587        1.3063129687       -1.7191317881
