55
 energy: -91.138846202695 gnorm: 0.000026422153 xtb: 6.7.1 (edcfbbe)
C           -5.11489128636905       -0.51506659059502        3.57349769741028
C           -3.73540612738597       -0.50576519483069        3.60685079038476
C           -3.00612906928825       -0.48201181009387        2.42668642574132
C           -3.65083604954713       -0.46761787722982        1.19683804626488
C           -5.05229351138982       -0.47610427625166        1.17214988939684
C           -5.77314928934120       -0.50001167613445        2.35027234377999
O           -5.76818421116860       -0.46061807449113       -0.00540845309756
C           -5.05130396408367       -0.44273838465261       -1.18232974707877
C           -5.77118151718493       -0.43333523880845       -2.36125636438599
C           -5.11192109936159       -0.41486772851905       -3.58389490053789
C           -3.73239942304195       -0.40620930124616       -3.61584339697216
C           -3.00410931664108       -0.41583136290710       -2.43487082823324
C           -3.64981997495834       -0.43399135722675       -1.20560274751969
N           -2.94744181520980       -0.44069307654775       -0.00393890672376
C           -1.52570531936739       -0.45752132957403       -0.00347515423300
C           -0.84413333989977       -1.67466824701619       -0.01367950494470
C            0.53042065447809       -1.67036887193757       -0.01365861993691
C            1.24594285920727       -0.46896929929782       -0.00299861004192
C            0.56767228572832        0.76632845429883        0.00816445790106
C           -0.83108322631871        0.73686866794075        0.00723167471815
C            1.32060668043596        2.01353778363446        0.02041611407628
C            0.69868430182407        3.26781529955339        0.03186422056376
C            1.43313171670663        4.43410621464093        0.04390205823314
C            2.82299213157192        4.39182723716035        0.04477416036053
C            3.46191342620218        3.17336678661525        0.03346201315899
C            2.72970658630500        1.98233922060324        0.02132297677411
C            3.43172467672162        0.71700882123615        0.00903048387916
N            4.75217084997592        0.71588675996226        0.00938959159046
C            5.38407482996863       -0.46730337648469       -0.00395300557336
C            6.79520522178017       -0.51347365949840       -0.00443357380394
C            7.43443173969834       -1.72015545833108       -0.01876123200549
C            6.70463415134922       -2.92521209559601       -0.03319982783617
C            5.33903373448080       -2.91758975140425       -0.03291089883529
C            4.64481260975461       -1.68824260037200       -0.01812001744406
N            3.30330949424787       -1.67554719892109       -0.01732687628953
C            2.69263815696866       -0.50513883577539       -0.00391285335994
H           -5.68758672376963       -0.53376472333153        4.48746822831514
H           -3.21161425070301       -0.51691859992969        4.55055068406177
H           -1.92737453627190       -0.47533749291870        2.45747484158543
H           -6.85044923583203       -0.50652920097870        2.29238991857397
H           -6.84853287188677       -0.44101203317612       -2.30445472998619
H           -5.68386092963451       -0.40767275214251       -4.49849978495531
H           -3.20780147899599       -0.39229365092269       -4.55905886398502
H           -1.92533352860155       -0.41020563510129       -2.46462776429799
H           -1.39920911982491       -2.60043655489717       -0.02161405751754
H            1.09169296325719       -2.59139905267933       -0.02195902773475
H           -1.40331514754585        1.65031494116314        0.01499453067103
H           -0.37664136975945        3.34046449929323        0.03162778623348
H            0.92283355429698        5.38594927516488        0.05263135084557
H            3.39472891236052        5.30750127114263        0.05420000811742
H            4.53841481668318        3.10290298298720        0.03363451755183
H            7.33543919668482        0.42078801214716        0.00655352969977
H            8.51363077538200       -1.76069017461769       -0.01931608323355
H            7.24073961772217       -3.86263881723170       -0.04452313116270
H            4.76111978959935       -3.82905586585616       -0.04374537815401
