55
 energy: -91.091394588407 gnorm: 0.000094017412 xtb: 6.7.1 (edcfbbe)
C           -5.14496196304651       -2.13638450031507       -2.73183034981029
C           -3.76166840433673       -2.15119529196568       -2.78093515346152
C           -3.02086748291666       -1.33619103560644       -1.94254345695085
C           -3.65421092690527       -0.49296478786569       -1.03335934810943
C           -5.05903048666574       -0.47349311444311       -1.00232171694210
C           -5.79271466612750       -1.29223528227768       -1.84370860630905
O           -5.75892584619797        0.34891427815697       -0.15855922407155
C           -5.04195511271165        1.16440211815557        0.67736160281910
C           -5.75711315579058        1.98741147559622        1.53036691320154
C           -5.08985182623153        2.82481130653233        2.41052119877586
C           -3.70592985321328        2.82827264840634        2.44050686848024
C           -2.98361100786318        2.00853903194725        1.59064712620020
C           -3.63692112312728        1.17311518517651        0.68844922764025
N           -2.94441436383039        0.33808621274295       -0.17742351950996
C           -1.52315552406775        0.34828076373021       -0.19540822609362
C           -0.84480297418600        1.43561934606348       -0.76608306687249
C            0.52317344576464        1.43588607356340       -0.77506942230824
C            1.25633409442290        0.36822323190981       -0.22640703750767
C            0.57614264388347       -0.73573783754093        0.34817132156173
C           -0.82520661326260       -0.70806047667723        0.34778138106411
C            1.33614847178206       -1.82405905463796        0.91155522402616
C            0.73960323091162       -2.96060678849540        1.48126511740443
C            1.49324557027544       -3.97576959115896        2.01821116964973
C            2.88751704617082       -3.90018510358208        2.01080514015843
C            3.50293345341431       -2.80770794907975        1.45713622796441
C            2.75037574675074       -1.76060525573993        0.89978377846604
C            3.43474327129579       -0.64349876514777        0.32314862703585
N            4.75845344646648       -0.58517958034755        0.31504860182744
C            5.41366342043339        0.45192523134113       -0.21646269504739
C            6.80485526087617        0.52847660309818       -0.22887501514073
C            7.45048147808081        1.61616349109591       -0.79081006713192
C            6.71833199121068        2.65148142218627       -1.35412999408561
C            5.33547723681114        2.60903632603865       -1.35984600157354
C            4.65081060365320        1.52990925711837       -0.80146297891938
N            3.31790937297451        1.45585163802949       -0.78993156483049
C            2.68234754354659        0.42092608273662       -0.25018190755252
H           -5.72295378397038       -2.77198561115776       -3.38364823459506
H           -3.24901105192718       -2.79768722412849       -3.47615770133627
H           -1.94355834917310       -1.34604484761618       -1.99105425968772
H           -6.86893781040587       -1.25026157176176       -1.78864920576716
H           -6.83431402956810        1.95457197307004        1.49051948382067
H           -5.65347258536026        3.46407033667505        3.07130734239686
H           -3.17851237940003        3.46924987811905        3.12976863249811
H           -1.90568508201540        2.00913089600409        1.62351815061094
H           -1.40704213774691        2.25347020551027       -1.19038266219203
H            1.07874004428123        2.25473814285006       -1.20596750804863
H           -1.38794717045231       -1.51984759674196        0.78034536388948
H           -0.33459087332534       -3.05224697458703        1.50148795249550
H            1.00541895060775       -4.83800083719186        2.44873103439438
H            3.47528189325889       -4.69973654601628        2.43667300057139
H            4.57886187221672       -2.72150271785024        1.43214205054096
H            7.36238931258254       -0.28413719088187        0.21189527304652
H            8.52941742258995        1.65494784852536       -0.78826430190127
H            7.22698962726718        3.49751956287375       -1.79160683158943
H            4.75523174300842        3.40950029811065       -1.79339024043459
