55
 energy: -91.091468506998 gnorm: 0.000044785873 xtb: 6.7.1 (edcfbbe)
C           -5.12996633143580        2.88912968294556       -2.28872360976416
C           -3.74637961517563        2.90503633295681       -2.32812436476697
C           -3.01143286277116        2.06172861882289       -1.51286896721760
C           -3.65143068549268        1.18931423006955       -0.63649268948094
C           -5.05624672599173        1.16912160343969       -0.61564678596868
C           -5.78410342323613        2.01596682221991       -1.43386180921579
O           -5.76082052022389        0.31889894288149        0.19581433610981
C           -5.04853651016443       -0.52788466662941        1.00428750249071
C           -5.76997768886932       -1.38136542651176        1.82142236504817
C           -5.10957409477642       -2.25170711947876        2.67421501755204
C           -3.72588036901643       -2.25826612919416        2.71223163318509
C           -2.99732856644007       -1.40881112542354        1.89764326111903
C           -3.64343471720420       -0.53816360051038        1.02392060536303
N           -2.94615605241435        0.32866051767656        0.19329532189822
C           -1.52495270552726        0.34631213064052        0.20018250998702
C           -0.84725659913222        1.41824407909812        0.80005117115002
C            0.52076262828708        1.42249369352163        0.80284005569870
C            1.25457163016684        0.37328041258480        0.22049469169622
C            0.57513828090276       -0.71345516388886       -0.38683808315875
C           -0.82622486871506       -0.68980565897422       -0.37983832112621
C            1.33574184878874       -1.78267583854551       -0.98480043798852
C            0.73961976476676       -2.89740064731354       -1.59648322752578
C            1.49374852781950       -3.89715810747758       -2.16097088427222
C            2.88819505633989       -3.82734230317961       -2.14005216691391
C            3.50311492545465       -2.75482677475313       -1.54809916634678
C            2.75002024035688       -1.72300486509815       -0.96357049658160
C            3.43370486518330       -0.62509819734716       -0.35036646080805
N            4.75750731233446       -0.57178163805504       -0.33048579823462
C            5.41209812867867        0.44726869714724        0.23555943201743
C            6.80341579580282        0.51669853988351        0.26425044162426
C            7.44817073541260        1.58666491316813        0.86022557631650
C            6.71509830162957        2.61123002397757        1.44172366455041
C            5.33207951891205        2.57493265964087        1.43303956941385
C            4.64834694206039        1.51289070483474        0.84173847795656
N            3.31537506583663        1.44352913943980        0.81863648118618
C            2.68053512620704        0.42496634487542        0.24792283983371
H           -5.70336099816529        3.54664992184299       -2.92260813181768
H           -3.22911415261957        3.57457069999639       -2.99762954041582
H           -1.93384389793106        2.07253320126148       -1.55339507663760
H           -6.86068276738127        1.97306924889903       -1.38740345115239
H           -6.84685063623964       -1.34537834245420        1.77574091330058
H           -5.67804758447962       -2.91425492807623        3.30729958396683
H           -3.20324660088531       -2.92551163434279        3.37986937861058
H           -1.91965653387070       -1.41302062610167        1.93772035440005
H           -1.40978912936719        2.22091921336069        1.25206005028270
H            1.07584366382766        2.22927048628400        1.25656507226723
H           -1.38851423562305       -1.49019432679722       -0.83372742148751
H           -0.33471684274558       -2.98361155061619       -1.62894102082769
H            1.00606291669733       -4.74240872013891       -2.62409735504263
H            3.47639335826984       -4.61525853095869       -2.58653408563935
H            4.57909880462908       -2.67277968271869       -1.51358690258530
H            7.36172377405418       -0.28707188692788       -0.19152443033300
H            8.52724748542864        1.62018773770088        0.86982008248443
H            7.22320565909719        3.44365181187312        1.90520383424025
H            4.75102220876626        3.36673548828825        1.88117445266352
