  44
        -76.49704995
 O          4.4696058055       -1.3851082471       -1.7432414114
 S          3.9970259203       -0.1088575278       -1.2521436282
 O          4.4995797581        1.0564985288       -1.9464035574
 C          4.1908172885        0.0345431355        0.5207198498
 C          5.3551110135        0.0853581670        1.2443289037
 C          5.2772106569        0.1997468646        2.6275776298
 C          4.0323993411        0.2607951342        3.2501866017
 C          2.8637818264        0.2087239804        2.5201487652
 C          2.9227366845        0.0927950974        1.1253319983
 C          1.8245914480        0.0249236437        0.2013316504
 C          0.4552551997        0.0505262899        0.4956937829
 C         -0.4560426986       -0.0263727544       -0.5369863828
 N         -1.8577819987       -0.0091321386       -0.2355262202
 C         -2.4652784343        1.2165705835       -0.1588269996
 C         -1.7262477625        2.3909456801       -0.3938830855
 C         -2.3013241521        3.6318493929       -0.3103167547
 C         -3.6657049534        3.7687411458        0.0213082572
 C         -4.4171311518        2.6474016924        0.2517531574
 C         -3.8508652035        1.3709996179        0.1657455086
 S         -4.8967612769        0.0257903711        0.4691311513
 C         -3.8564542381       -1.3441174567        0.2758792696
 C         -4.4290460298       -2.6067764088        0.4629705517
 C         -3.6800259205       -3.7460512365        0.3353539976
 C         -2.3105858406       -3.6417535521        0.0138838488
 C         -1.7299035747       -2.4141994123       -0.1692240272
 C         -2.4683592021       -1.2220460444       -0.0508579212
 C         -0.0604649158       -0.1267947599       -1.8777024984
 C          1.2987836666       -0.1554013955       -2.1758111375
 C          2.2072962621       -0.0823864926       -1.1543616286
 H          6.3061945185        0.0365993072        0.7369982711
 H          6.1792564978        0.2415201426        3.2173252823
 H          3.9839726466        0.3505741302        4.3255364165
 H          1.9084758505        0.2576208803        3.0205351435
 H          0.1083915558        0.1273787360        1.5148093951
 H         -0.6818711202        2.3031875738       -0.6476996812
 H         -1.7055510313        4.5101339288       -0.4987888681
 H         -4.1090902435        4.7485986250        0.0887257739
 H         -5.4645374855        2.7213620789        0.5033261831
 H         -5.4789032135       -2.6560091985        0.7102077201
 H         -4.1285586794       -4.7152706688        0.4789972311
 H         -1.7149732297       -4.5343523673       -0.0881835725
 H         -0.6810359047       -2.3522205204       -0.4112069165
 H         -0.8050707963       -0.1828909720       -2.6550111856
 H          1.6382247388       -0.2350484735       -3.1964267939
