44
 energy: -76.535082973421 gnorm: 0.000054300683 xtb: 6.7.1 (edcfbbe)
O            4.48303096519404       -1.35182374159736       -1.75575682844633
S            3.98560888616538       -0.08498863757741       -1.23964905804914
O            4.48668171582616        1.09083993221707       -1.93604032991689
C            4.19336439214617        0.04450436688641        0.52251888345916
C            5.36391543801796        0.09640885824803        1.23675249819213
C            5.29832328027105        0.19834505324254        2.62082395592136
C            4.05397960596139        0.24627478689717        3.25426227292244
C            2.88068490216526        0.19416910415909        2.53609384160062
C            2.92315169095870        0.09080755751656        1.13591620263756
C            1.82682477665564        0.02347387266979        0.22012628603142
C            0.45387075254678        0.04394525279268        0.51058928523828
C           -0.45608469294815       -0.03222122331458       -0.52085942531172
N           -1.85919899364281       -0.01307228231431       -0.22326686999982
C           -2.46886125625510        1.21325793820453       -0.15536769467328
C           -1.72967559835080        2.38546354048482       -0.40401128138022
C           -2.30674010636601        3.62769134321845       -0.33391839850321
C           -3.66677975270142        3.76764692804614       -0.00298966767354
C           -4.41729884187864        2.64688272156975        0.24400979324175
C           -3.84826448788721        1.37173786222271        0.16987950299022
S           -4.89602485524506        0.02992278405101        0.50124453483307
C           -3.85999833297860       -1.34361019562404        0.28140022230627
C           -4.44072665610050       -2.60338969186846        0.45805414659018
C           -3.69594532070656       -3.74673970399819        0.32208615920902
C           -2.32873625054555       -3.64557455687829        0.00748049557067
C           -1.74110730846990       -2.41839994682195       -0.16561274358438
C           -2.47652860342456       -1.22411250103823       -0.04261683878294
C           -0.05969794129314       -0.13034455632126       -1.86736415259832
C            1.29806927197615       -0.15094649543709       -2.16501681339179
C            2.20800574841030       -0.07600373111946       -1.14384932908649
H            6.31068694307562        0.05736219897338        0.71793010110236
H            6.20536775746635        0.24020053830559        3.20306985277400
H            4.01717874512092        0.32575253180006        4.33107311558328
H            1.93027510432119        0.23246452053664        3.04563604937402
H            0.11118137019632        0.11862400008879        1.53079155306569
H           -0.68605567581381        2.29640307237833       -0.65861619880483
H           -1.71030248835853        4.50330740141702       -0.53436446732886
H           -4.11227586109464        4.74749000937617        0.05342830456877
H           -5.46345072882579        2.72375969898049        0.49797965412844
H           -5.49074522682170       -2.65016707445456        0.70319661133115
H           -4.15050092459669       -4.71483002180882        0.45597520200493
H           -1.73485860490961       -4.53924454593453       -0.09854127655123
H           -0.69190088171784       -2.35956214572549       -0.40526358336008
H           -0.80191776211588       -0.18843164411345       -2.64604409474107
H            1.64065339200349       -0.22483384447494       -3.18594790138413
