44
 energy: -76.523157887887 gnorm: 0.000064163636 xtb: 6.7.1 (edcfbbe)
O            4.40572469350888       -2.25946561065270        1.03124850076393
S            3.89098964920019       -1.55521975879582       -0.13651933816660
O            4.27171548671640       -2.15318717598144       -1.40965014470334
C            4.23361882557678        0.18371728419647       -0.07579437962711
C            5.45573845094129        0.80464852749304       -0.11194194911897
C            5.50837935866648        2.19190450438941       -0.05366104101135
C            4.31788888312459        2.92894304300535        0.03963805310983
C            3.09392580087212        2.31199997792226        0.07616944230290
C            3.01045789794893        0.90213949389436        0.01939807809334
C            1.85531362103327        0.08799428388746        0.05389060797999
C            0.51664181393377        0.48440341166020        0.14113166591673
C           -0.50369202976829       -0.45182314945593        0.16525189469055
N           -1.83273678408392       -0.07892739463801        0.26553869959124
C           -2.25095085052821        1.25716969830015        0.32898469968995
C           -1.70300103774686        2.15518268408816        1.25027975634727
C           -2.11821606775136        3.46975730326243        1.27768702497474
C           -3.09064014599622        3.92127766057826        0.39095794105763
C           -3.68741916517321        3.03428890014917       -0.48300683605563
C           -3.29007955081342        1.70357919959753       -0.50055777726761
S           -4.10497687611221        0.56660321937788       -1.57419734814961
C           -4.00416008774216       -0.83684987639087       -0.51214079460848
C           -5.02932261351172       -1.77150247792007       -0.50662206701519
C           -4.96353207064766       -2.86406220379118        0.33866427809570
C           -3.88086641225834       -3.00967385427163        1.20048833874179
C           -2.84991438826218       -2.09545170313224        1.18895501910423
C           -2.87555780090297       -1.00851234054881        0.30464832313909
C           -0.18873481397941       -1.85158418198875       -0.02395315023144
C            1.13019768500699       -2.25700714455914       -0.09406577619112
C            2.13690039083722       -1.32650690690338       -0.02568223776370
H            6.35523830123001        0.21033623211978       -0.18521933135079
H            6.45922051805410        2.70002115019719       -0.08202360665253
H            4.37505550022180        4.00699666925573        0.08320291788421
H            2.19044285555041        2.89779927256951        0.14778854450800
H            0.30082929757712        1.53876204446779        0.16593034799461
H           -0.97220041262412        1.79673544984033        1.95840974115972
H           -1.68786419946938        4.14692580246561        1.99879695573205
H           -3.40097957302565        4.95385992628460        0.40418111840411
H           -4.47340201663955        3.35444348672474       -1.14859203303586
H           -5.87500872179790       -1.62623733530674       -1.15998754421221
H           -5.76428360587515       -3.58604088544639        0.34536013873226
H           -3.84786298825448       -3.83806060306212        1.89075829319182
H           -2.01877329369948       -2.19085851399282        1.87066070073969
H           -0.97370057047854       -2.57052474721831       -0.17377310195497
H            1.37616387396682       -3.30075453300085       -0.22230148467758
