83
 energy: -137.650914544770 gnorm: 0.000046387455 xtb: 6.7.1 (edcfbbe)
F           -0.45233234157951       -6.40035235888084        0.80923614401208
C           -0.09241908900124       -5.12886002207199        1.06563850887552
F           -0.36718390438627       -4.92207317096451        2.36686921097200
F            1.26087569329996       -5.11648530575392        0.97853336760794
C           -0.73140172372680       -4.13140357884719        0.15164482692607
C           -1.04957374167654       -4.50191867996800       -1.15503532538877
C           -1.61444805997604       -3.55183927624778       -2.00049766496443
C           -1.84917181021191       -2.26882264416205       -1.56176257497253
C           -1.52152368234316       -1.89472046785352       -0.24607984671809
N           -1.72198495555724       -0.59647794629855        0.19718649862779
C           -0.75631461020236        0.20892363980277        0.86078552892516
C            0.60980781074073       -0.05673250372160        1.05542339432820
C            1.36764143117487       -1.03518128441268        0.36206188298595
C            2.71239245821151       -1.18765849733116        0.58739324416932
C            3.38470995182779       -0.36801353862986        1.50191461627947
O            4.70870599372025       -0.41751002478110        1.78738634437987
C            5.59222211230738       -1.13390941174146        0.94093612364397
C            5.68698129008671       -0.50832338335681       -0.45410284351789
C            6.12501317218476        0.95718156864941       -0.38948000226817
C            5.54048955287113        1.78014383037348       -1.54606664380086
N            4.11593321368962        1.94425245431383       -1.41309688845418
C            3.13676797458558        1.22364390150340       -2.05384428779948
C            3.24491997151586        0.23316737981453       -3.02355126774206
C            2.08075783103840       -0.32867641078173       -3.51134822920736
C            0.82840678062750        0.08440149152289       -3.06207918297052
C            0.71016142407404        1.07523672370301       -2.10666324351157
C            1.86509651797532        1.64573820303921       -1.59210483385671
C            2.10739819266240        2.66681953114112       -0.61315900204402
C            1.27634809315726        3.44394696511327        0.18097234240742
C            1.85444635310010        4.36354950668086        1.03523451549421
C            3.23826424197117        4.51102731613933        1.10177842280523
C            4.08491516832311        3.74262534237780        0.32558045078788
C            3.51228494408890        2.81446114749549       -0.53479769981375
C            2.64765237629672        0.61089505814993        2.19876612150638
C            1.31291576636969        0.76901537089909        1.97842355848035
N           -1.29541510312301        1.39375228782530        1.21380243229528
C           -2.53180195112223        1.41293385978508        0.75298692762813
C           -3.45667511093087        2.49719575354701        0.79333355625053
C           -3.08299983294535        3.73888707937371        1.31250532349565
C           -3.96445445670193        4.80067601111664        1.28726360344616
C           -5.22116255261381        4.62299758259438        0.72780803578152
C           -5.60553726179340        3.39148857150811        0.22479347233205
C           -4.74806790053591        2.28736804880540        0.25676305143505
C           -5.14402014061287        0.96042029771934       -0.19869578203445
C           -6.45846173484897        0.68317185874452       -0.56267490064507
C           -6.87192349829718       -0.58181049379365       -0.94228816490279
C           -5.96202263116448       -1.63903137989097       -0.93890767000915
C           -4.65577688102660       -1.41577726120393       -0.59647018431916
C           -4.19367485019470       -0.12125741148973       -0.24242031728940
C           -2.87566139757245        0.16110018667820        0.13198498729981
C           -0.95586044359693       -2.84786923004176        0.61247816080143
H           -0.86253890327363       -5.50725943896331       -1.49498225105880
H           -1.86029091365803       -3.82520780283756       -3.01477115863031
H           -2.27533579887959       -1.53062033929189       -2.22394848234988
H            0.90685021570153       -1.63756903105144       -0.40172431384192
H            3.23761895057265       -1.95539062505633        0.04117733442323
H            6.55586731314918       -1.07448608703444        1.45346393550433
H            5.29543207962913       -2.18714496147567        0.87153026656259
H            4.70347700156644       -0.56391213451477       -0.92126350467405
H            6.38330957290812       -1.09683375108833       -1.05214085748667
H            7.21269030234178        1.03036572036479       -0.41019775355244
H            5.77347135338919        1.38966476331381        0.54925701695359
H            5.74973548261874        1.29273781478106       -2.50021930824898
H            6.00250543588501        2.77204414744218       -1.55973091489774
H            4.20372645710305       -0.09701819077822       -3.39428112962009
H            2.14198873791142       -1.10367478693414       -4.26146064992948
H           -0.05723486034427       -0.37671009681681       -3.47345687572647
H           -0.25831862122594        1.40616796992013       -1.76171839015416
H            0.20569820201700        3.31558627921336        0.13994995384084
H            1.22873075035411        4.97976354931045        1.66377452745317
H            3.65917622656898        5.24068922295553        1.77838986717039
H            5.15458949605337        3.86920650347434        0.39260278796220
H            3.17388147906913        1.23558909160060        2.90351462217061
H            0.75145637511044        1.52412163867002        2.50309219230460
H           -2.08996423534350        3.83786127326841        1.72265327496689
H           -3.67591687285284        5.76014429112387        1.68929323840245
H           -5.91394021698880        5.45089363086401        0.68501596404317
H           -6.59163871944327        3.30491130899020       -0.20225036227114
H           -7.19836062322023        1.46691733586766       -0.53672396705713
H           -7.90137456167381       -0.75221723320279       -1.21826255217421
H           -6.28927231596636       -2.63558255416604       -1.19675147452653
H           -3.96918073179124       -2.24488259445515       -0.56013182593878
H           -0.70800855337072       -2.57720210114185        1.62747517101354
