83
 energy: -137.650857862244 gnorm: 0.000115110681 xtb: 6.7.1 (edcfbbe)
F           -0.86735458545420       -6.35508402333485        0.77103150216514
C           -0.41121346634722       -5.10771502963880        0.99241613601701
F           -0.63721278345295       -4.85759363495994        2.29515464264884
F            0.93683052733839       -5.19466080739095        0.87226707451498
C           -1.00061321616155       -4.08544292950048        0.07268909182466
C           -1.34553833506389       -4.45263729103502       -1.22808685844304
C           -1.86284882830557       -3.48242579333370       -2.08136794902551
C           -2.02526829196608       -2.18380313317463       -1.65616913361635
C           -1.67310816715596       -1.81395356724330       -0.34537399557151
N           -1.79503491942265       -0.50223744910153        0.08602727544478
C           -0.78547457960710        0.23033683406554        0.76763439657712
C            0.55546693142109       -0.14169762323365        0.97339456293200
C            1.25352559811172       -1.12707740250284        0.23039372386103
C            2.57503326841234       -1.40283027257831        0.47713007166428
C            3.27697749166904       -0.71370809741421        1.47314834552746
O            4.57715749402019       -0.90497093695438        1.80444400717274
C            5.43044916042942       -1.64023077776555        0.94312568531390
C            5.66663987738994       -0.91251003142549       -0.38375405994013
C            6.25596800309277        0.48322741796349       -0.16161262053530
C            5.82462192672549        1.46959326987393       -1.25570069607430
N            4.41442780749474        1.75224991931621       -1.18602188374347
C            3.42240340291748        1.19182353135353       -1.95443605143220
C            3.51210682746075        0.31363816831533       -3.02859900544124
C            2.33975578205493       -0.08452110500185       -3.64193060453570
C            1.09824952426506        0.37647718283461       -3.20927226444932
C            0.99909155183644        1.25255459866053       -2.14529604567376
C            2.16193916129692        1.66402715468153       -1.51110109722976
C            2.42406257179085        2.54915950652825       -0.41227335880459
C            1.60962528275786        3.30462022354106        0.41889771813278
C            2.20532713260855        4.07707780738950        1.39788664771964
C            3.58983032304785        4.09918555484604        1.55179885354462
C            4.41939694530607        3.34925521278400        0.73981768761245
C            3.82901656387526        2.56938619589493       -0.24664215444776
C            2.60053184121290        0.27639545742215        2.21377986208805
C            1.29225654770877        0.56422138579908        1.96467774717581
N           -1.24627245042122        1.44227146470183        1.13314210679899
C           -2.47592642231360        1.54863573088398        0.66346152714571
C           -3.32808981756148        2.69002454233064        0.71231600463749
C           -2.87758915470333        3.89838336351117        1.24935201368582
C           -3.68894682402161        5.01493155623559        1.23622748520384
C           -4.95257580162788        4.92562396956004        0.67171371948302
C           -5.41303264580734        3.72816579216862        0.14997181238717
C           -4.62806211325805        2.57126743122851        0.16802831700970
C           -5.10658443356960        1.27888162634792       -0.30786395965230
C           -6.43269488505921        1.09336196063014       -0.68679107682301
C           -6.92542012945353       -0.13730755625388       -1.08503102529748
C           -6.08805161660604       -1.25274353065854       -1.08466464820015
C           -4.77311710754727       -1.12021446260344       -0.72865169085067
C           -4.22891798965244        0.13753689515552       -0.35812330548599
C           -2.89749677447949        0.32862301265903        0.02539706303750
C           -1.15346288239425       -2.78713441419977        0.52051473015213
H           -1.21443547751016       -5.47018577092618       -1.55771771485685
H           -2.12774983976978       -3.75276602053463       -3.09162677806339
H           -2.40976065678376       -1.43051428683928       -2.32689902748383
H            0.76801654223299       -1.63344672779143       -0.58659492481027
H            3.05730959318337       -2.16514429071711       -0.11436514629559
H            6.36453521297736       -1.72542609929726        1.50440844028859
H            5.03312081758958       -2.64676212483901        0.76755099675659
H            4.70869308109472       -0.81801780182374       -0.89624352361966
H            6.32685516265636       -1.52058058530847       -1.00269067125578
H            7.34486318723205        0.43587344666109       -0.13050651330667
H            5.90478114163690        0.86415452574960        0.79929737240959
H            6.05181999343138        1.06233858138897       -2.24263057512136
H            6.37274986374179        2.40936360286534       -1.13794061486631
H            4.46303979747704       -0.05284442393269       -3.38509744463783
H            2.38644778841521       -0.76695309908320       -4.47806827035216
H            0.20598732589351        0.04568946224737       -3.72022587742432
H            0.03974570142078        1.61713892932325       -1.80881312570258
H            0.53671367296599        3.27133480039941        0.30858626474526
H            1.59279101591966        4.67355609902884        2.05773902307753
H            4.02496200082819        4.71454548417734        2.32601771120270
H            5.48973815957688        3.37784328704106        0.87526294268446
H            3.15132215457033        0.80364732347717        2.97686235662542
H            0.77775056303838        1.32742515280734        2.52468336612080
H           -1.88189825147104        3.92840316122207        1.66379004048654
H           -3.34047277468136        5.94842495527134        1.65178425356436
H           -5.59093955093767        5.79664610763635        0.63920175544999
H           -6.40164318337958        3.71112447816716       -0.27973318030376
H           -7.11941776719951        1.92400841956224       -0.65918730901593
H           -7.96101446121662       -0.23593187063914       -1.37275871001851
H           -6.47846889705209       -2.22261779478897       -1.35600257340622
H           -4.14376147652834       -1.99368222568601       -0.69446318866358
H           -0.88824101730285       -2.52061740387003        1.53207729470205
