60
 energy: -93.737286593041 gnorm: 0.000048203850 xtb: 6.7.1 (edcfbbe)
C            7.76203978874288        1.11452244148805       -0.99977159835733
O            7.04166042097373        0.21425630665484       -0.18499336304010
C            5.67929902030981        0.25599160584260       -0.21234546515236
C            4.91902435594923        1.11987388616035       -0.99061402112331
C            3.53851734533715        1.05712525415608       -0.91972372464692
C            2.87847268583079        0.14403219151855       -0.10534640524195
C            1.41772758283730        0.07899618675173       -0.06272771249468
C            0.66645513885358        1.21122312384097        0.37456311397529
C            1.28958708660557        2.38289199877054        0.81582604261004
C            0.55433693956711        3.46200802818779        1.30361877118218
C           -0.81658879158776        3.36821060839541        1.40247527015284
C           -1.46061492111732        2.19795229891752        1.00403162762847
C           -0.75540691500636        1.12306576407609        0.45711084164850
C           -1.41897591827209       -0.08119249569293        0.07132501836962
C           -2.87981257357479       -0.14382867467083        0.10851144374356
C           -3.54535369027182       -1.05886131334532        0.91633666355143
C           -4.92627751535868       -1.12015206356498        0.97975660668274
C           -5.68145935508991       -0.25268992331887        0.20048217021597
O           -7.04359739500774       -0.21006550911302        0.16510307916036
C           -7.76945883072768       -1.11510910077463        0.96964834399555
C           -5.03795194818651        0.66506411386597       -0.63407503253244
C           -3.65793616639340        0.72931643561573       -0.68769393673052
O           -2.96214532342851        1.56485396028750       -1.50534982225933
C           -3.67311739404565        2.46766433669188       -2.32225569796966
C           -0.66756115631225       -1.21386851871974       -0.36492162143896
C           -1.29043356041949       -2.38541515247024       -0.80678994440189
C           -0.55491626551679       -3.46541819876314       -1.29228887078161
C            0.81623781930143       -3.37258795234610       -1.38851148483003
C            1.46007999717208       -2.20211169342141       -0.99046601623937
C            0.75447552907664       -1.12610865776347       -0.44615340178270
C            3.66167220796561       -0.72449510861530        0.69072328924984
O            2.97108001747752       -1.55752592051400        1.51533464683918
C            3.68760746459254       -2.45434000564023        2.33398879092306
C            5.04134980164898       -0.65879579000683        0.62967353540893
H            8.81275204410823        0.89987450614140       -0.81159511580999
H            7.54203953875483        0.95648913229039       -2.05973241211502
H            7.54850660214931        2.15332082455805       -0.73114197363077
H            5.38098167801780        1.83302399364249       -1.65341344941605
H            2.94716008298470        1.71515824890310       -1.53936775474417
H            2.36641868941097        2.45025440342313        0.79113386887286
H            1.06850337446858        4.35897827751370        1.61743333918111
H           -1.39736139797461        4.18807737249377        1.79982345502019
H           -2.52928878341225        2.11715989591380        1.13416320889532
H           -2.95817477128971       -1.71974741710370        1.53691184020844
H           -5.39258940108034       -1.83512431740096        1.63753534898312
H           -7.55265018029147       -2.15231569092588        0.69754298021916
H           -7.55809660851882       -0.96215046928952        2.03210909092335
H           -8.81888292130031       -0.90064182445436        0.77416699741933
H           -5.66205694635864        1.30888635234054       -1.23181325661039
H           -4.30933079598095        1.94159080675076       -3.04056438777264
H           -4.28272116667558        3.15216040248403       -1.72470270250179
H           -2.91172459830139        3.03328556346212       -2.85686366142144
H           -2.36734219253640       -2.45212083174057       -0.78457153632211
H           -1.06907696989161       -4.36229236823779       -1.60638458477016
H            1.39732836916549       -4.19324967103942       -1.78374247062061
H            2.52896722344739       -2.12197284549269       -1.11907255579975
H            2.92988993994176       -3.01758698556281        2.87625702094093
H            4.32701668572153       -1.92291681717694        3.04548639996708
H            4.29491226451092       -3.14175238801740        1.73743418729255
H            5.66941485172312       -1.29948224881730        1.22662922145047
