60
 energy: -93.807100240040 gnorm: 0.000070421920 xtb: 6.7.1 (edcfbbe)
C            7.78550319588563       -0.22705884405927       -1.40170324055808
O            7.04593558702265       -0.00608400436483       -0.22009409755339
C            5.68243800551100       -0.04611717786923       -0.28739072114550
C            4.94567693236678       -0.28351295607397       -1.43809720881204
C            3.56046969385776       -0.29531598973030       -1.36414062779932
C            2.89205839285590       -0.07503601212287       -0.17427510610874
C            1.41228484022645       -0.08206625631375       -0.10348663786245
C            0.71492033938093        1.12969239113394       -0.01123525435112
C            1.38751199672008        2.37990495879916       -0.01845728920000
C            0.70328721199436        3.55124171926487        0.08983145733784
C           -0.70098866134295        3.54475473685392        0.21605595796024
C           -1.38429988179251        2.36798287821242        0.21377735562131
C           -0.71116599363204        1.12460409895058        0.08514263860464
C           -1.40767911215965       -0.09093996054948        0.06148083947448
C           -2.88648400726793       -0.09486243753915        0.14997313361010
C           -3.53530420274392       -0.44494390869801        1.31964116614166
C           -4.91901976613819       -0.44768739393570        1.41660540211241
C           -5.67515463622093       -0.09436668826687        0.30894391821385
O           -7.03974893855661       -0.05743403582671        0.26681282779336
C           -7.75923681277553       -0.40163444914429        1.43125860197440
C           -5.03858722487673        0.25903933565016       -0.88301464283809
C           -3.65746734683270        0.26260244066601       -0.97122398741220
O           -2.95590079666055        0.58712563695726       -2.09350771622810
C           -3.66524811091410        0.99681808221837       -3.24091771562332
C           -0.71157026853660       -1.30195166399768       -0.04618336312026
C           -1.38705110787937       -2.55037648629610       -0.09409180517013
C           -0.70140404309853       -3.72263968946194       -0.18149442522755
C            0.70799045965361       -3.72012694239653       -0.22486894460954
C            1.39294318006225       -2.54462512942682       -0.19595893573489
C            0.71684821928915       -1.29800562546934       -0.11870217568811
C            3.64345212998280        0.15992166993546        0.99180958407522
O            2.92155999177414        0.35294017593697        2.13142925053158
C            3.61070467569555        0.60090817630029        3.33609690409651
C            5.02562338217376        0.17358560425351        0.92563615518032
H            7.56220414234009        0.52958738330948       -2.15982484311974
H            8.83132249330476       -0.14895749898497       -1.10884731811464
H            7.59520068410805       -1.22387519020333       -1.81074380300320
H            5.42438658111158       -0.45785153753146       -2.38756916340452
H            2.98297207599780       -0.47685728939858       -2.25884851681646
H            2.46355043331641        2.38260871638279       -0.11478192711496
H            1.22946125182076        4.49523342446288        0.08251789637617
H           -1.22759832878313        4.48349667033543        0.31330849044356
H           -2.46011876937657        2.36077847885470        0.31202930803710
H           -2.94239936290864       -0.71813892268309        2.18036586691903
H           -5.38163999077345       -0.72416050845562        2.34965273936439
H           -8.80997471784482       -0.30190362723137        1.16365560035737
H           -7.55707438492709       -1.43318620124006        1.73501607840573
H           -7.52785095869615        0.27662294533466        2.25804901937372
H           -5.66546505697558        0.52371411888780       -1.71862394257798
H           -4.31464581863755        0.19985561293202       -3.61596188181946
H           -4.26140280081743        1.89271256425315       -3.04237709512964
H           -2.90396300650002        1.22493472821909       -3.98515117792066
H           -2.46673747456811       -2.54915294055025       -0.05988899631080
H           -1.23036596643069       -4.66432123042769       -0.21714273256134
H            1.23735970555373       -4.66043611960324       -0.28333538511916
H            2.47256306720836       -2.53934797889921       -0.23100501157889
H            2.83648996642840        0.72393352556679        4.09170408148451
H            4.20772399053361        1.51586544785363        3.27401596762750
H            4.25605860585568       -0.23998096948945        3.60800033224056
H            5.63816880175379        0.34984856593577        1.79453266145401
