  75
       -113.26299437
 C          5.6444852736       -4.4722710212       -0.1704115459
 C          6.2219999589       -3.6121422368        0.7493568817
 C          5.7477239569       -2.3235372060        0.8968130245
 C          4.6857583611       -1.8704697085        0.1136683442
 N          4.2067294208       -0.5648341529        0.2544485668
 C          5.0935695734        0.4847333482        0.5113568693
 C          4.7207457607        1.5375744271        1.3475772393
 C          5.5976354591        2.5756340210        1.5942499459
 C          6.8589515998        2.5810874396        1.0214376875
 C          7.2357810287        1.5370453701        0.1924795654
 C          6.3631497905        0.4984344878       -0.0668423680
 C          2.8363811367       -0.3036411839        0.1312864133
 C          1.9019889880       -1.2083063618        0.6404607545
 C          0.5419149814       -0.9716270570        0.5244707160
 C          0.1162766300        0.1838364733       -0.0933805596
 C          1.0469951902        1.1010610156       -0.6022201300
 C          2.4037467280        0.8633315919       -0.5004800129
 C          0.3204345745        2.2110390642       -1.1995479487
 C          0.7686544273        3.3595436983       -1.8300974137
 C         -0.1687957708        4.2588571277       -2.3128914920
 C         -1.5266244035        4.0177871449       -2.1684877868
 C         -1.9809817388        2.8685217737       -1.5352889314
 C         -1.0529169224        1.9717766681       -1.0547786081
 C         -1.3008122250        0.6585628279       -0.3356125941
 C         -2.0443186035       -0.2977383894       -1.2363999430
 C         -1.4473708279       -0.6969845457       -2.4220889974
 C         -2.0864238617       -1.5594025047       -3.2936042146
 C         -3.3462570585       -2.0341687841       -2.9717473447
 C         -3.9557914659       -1.6483388639       -1.7953188350
 C         -3.3184216084       -0.7715334897       -0.9130982578
 N         -3.9393375512       -0.3938409226        0.2660960288
 C         -5.2504280667       -0.8740292660        0.5391954645
 C         -5.4315969208       -1.9911696607        1.3451994352
 C         -6.7099798548       -2.4497448562        1.6089128200
 C         -7.8072011276       -1.7996279555        1.0682030170
 C         -7.6265530993       -0.6877444981        0.2624357930
 C         -6.3507345067       -0.2221036610       -0.0024325661
 C         -3.3013654018        0.3969850040        1.2076454137
 C         -3.9345357201        0.7075091306        2.4142661041
 C         -3.3061914245        1.4901294857        3.3614245355
 C         -2.0344995247        1.9841836194        3.1268941701
 C         -1.4076555229        1.6920600399        1.9296383309
 C         -2.0229821963        0.9076070784        0.9664955222
 C          4.1090726358       -2.7405170254       -0.8119350500
 C          4.5856171253       -4.0298095466       -0.9464251154
 H          6.0170411021       -5.4791817530       -0.2817479953
 H          7.0435116801       -3.9497715902        1.3640262746
 H          6.1927267690       -1.6587240816        1.6226682616
 H          3.7417378073        1.5312885041        1.8034577642
 H          5.2955534993        3.3833403477        2.2447186967
 H          7.5423955631        3.3926585396        1.2188438196
 H          8.2150700520        1.5346836842       -0.2632480989
 H          6.6559501636       -0.3083533528       -0.7225157216
 H          2.2537322066       -2.1032716076        1.1316435138
 H         -0.1698482971       -1.6797763310        0.9228611261
 H          3.1240725036        1.5602737419       -0.9014290891
 H          1.8255374083        3.5516151404       -1.9431661426
 H          0.1617891063        5.1603651311       -2.8077836532
 H         -2.2388859949        4.7331920687       -2.5526697994
 H         -3.0391459505        2.6822387702       -1.4217819669
 H         -0.4642335915       -0.3187171332       -2.6611501058
 H         -1.6062620319       -1.8575734887       -4.2128663307
 H         -3.8594126902       -2.7120577653       -3.6376056552
 H         -4.9355734514       -2.0300556238       -1.5521418398
 H         -4.5682626912       -2.4885491583        1.7623234422
 H         -6.8494165368       -3.3171221970        2.2367191160
 H         -8.8035223089       -2.1607892675        1.2738938050
 H         -8.4807559849       -0.1815112469       -0.1616590833
 H         -6.1970795310        0.6413877911       -0.6328288536
 H         -4.9288163105        0.3344238244        2.6063252498
 H         -3.8163423371        1.7154982604        4.2861660477
 H         -1.5391884479        2.5962269067        3.8648582495
 H         -0.4199174963        2.0804779262        1.7289680713
 H          3.2884858467       -2.3961704253       -1.4241148261
 H          4.1306420100       -4.6917403759       -1.6685051518
