  92
       -154.67716412
 N         11.5811154190       -1.8859329983        1.2598395205
 C         10.5393197246       -1.6803015919        0.8234318302
 C          9.2523187677       -1.4325732783        0.3082581447
 C          8.1629872073       -1.3379183623        1.1648678863
 C          6.8841198170       -1.0933185052        0.6715167881
 N          5.8284100687       -1.0002707598        1.4967041259
 C          4.6478294621       -0.7736505984        1.0162278561
 C          4.4436584238       -0.6166817009       -0.4323299243
 N          5.4735608069       -0.7058885629       -1.2424187182
 C          6.6868559703       -0.9365872986       -0.7580367093
 C          7.8038956617       -1.0354167908       -1.6033436667
 C          9.0627673106       -1.2776594748       -1.0899942771
 C         10.1704240437       -1.3722937230       -1.9614688230
 N         11.0583343952       -1.4432892186       -2.6835168814
 C          3.0596983634       -0.3842824706       -0.6604550985
 C          2.2635293511       -0.1765420132       -1.7817701372
 C          0.8991006627        0.0193568772       -1.5929502975
 C          0.3031061070        0.0333734681       -0.3367400234
 N         -1.1057374954        0.2088808809       -0.2313214128
 C         -1.8882722982       -0.9306702308       -0.1931295729
 C         -1.2927812985       -2.1987024137       -0.2002832771
 C         -2.0596004012       -3.3390700678       -0.1481883906
 C         -3.4527707410       -3.2672923688       -0.0872325386
 C         -4.2761073228       -4.4779622859       -0.0118720279
 C         -5.4193246341       -4.5081158669        0.7861265483
 C         -6.1915139637       -5.6512741161        0.8659081584
 C         -5.8403151864       -6.7818819747        0.1467909798
 C         -4.7092270084       -6.7623011888       -0.6524133366
 C         -3.9316806984       -5.6224816678       -0.7296229272
 C         -4.0399072592       -2.0057778962       -0.0931888443
 C         -3.2838494816       -0.8489080669       -0.1443755586
 C         -3.9878235804        0.4803823869       -0.1690851782
 C         -4.8597237589        0.5867963315       -1.4099336079
 C         -4.4636213817        0.5946874266       -2.7282766531
 C         -5.4397051559        0.6979292265       -3.7107054232
 C         -6.7807984495        0.7893412312       -3.3713548432
 C         -7.1822161163        0.7810508675       -2.0449526872
 C         -6.2135879468        0.6797582321       -1.0604209647
 C         -6.3210164843        0.6510831155        0.3907144659
 C         -7.4244792188        0.7081550675        1.2256388647
 C         -7.2220793079        0.6593786228        2.5959473927
 C         -5.9445121511        0.5561499070        3.1245570046
 C         -4.8340619663        0.4972654675        2.2925458488
 C         -5.0317774066        0.5457729272        0.9308717505
 C         -3.0402507925        1.6479912752       -0.0925151291
 C         -3.5952496816        2.9192119929       -0.0016295209
 C         -2.8095842429        4.0484484313        0.0608799007
 C         -1.4262962183        3.9089643079        0.0342309500
 C         -0.8511645602        2.6303766995       -0.0638654747
 S          0.9011178547        2.7070435620       -0.0702959031
 C          0.8661871189        4.4486413361        0.0610234879
 C          1.9735586221        5.2794265429        0.1163293387
 C          1.7658616977        6.6411279466        0.2140804116
 C          0.4752565982        7.1622788033        0.2553283601
 C         -0.6253986469        6.3322988690        0.2008872435
 C         -0.4403325464        4.9558746144        0.1025882233
 C         -1.6476747634        1.4726361190       -0.1336579491
 C          1.0742320396       -0.2030423644        0.8342123147
 C          0.6390104434       -0.2545044969        2.1736071489
 C          1.5458748666       -0.4853442955        3.1904039446
 C          2.9118399242       -0.6753014304        2.9624465021
 C          3.3651909704       -0.6309910361        1.6557490408
 C          2.4385307529       -0.3965893781        0.6176616196
 H          8.2955198735       -1.4535794442        2.2297701982
 H          7.6571155992       -0.9179171329       -2.6660600537
 H          2.6854524006       -0.1690890524       -2.7737442379
 H          0.2667915436        0.1823896106       -2.4546077128
 H         -0.2184244480       -2.2834336409       -0.2392634338
 H         -1.5712223544       -4.3013651580       -0.1295684323
 H         -5.6885266768       -3.6364212542        1.3650321508
 H         -7.0704095379       -5.6620498406        1.4938761636
 H         -6.4450719906       -7.6742364562        0.2092155991
 H         -4.4326029279       -7.6398945455       -1.2182349597
 H         -3.0605595042       -5.6094772341       -1.3681289272
 H         -5.1163962168       -1.9197131260       -0.0793235782
 H         -3.4188202447        0.5228903894       -2.9938923249
 H         -5.1503308926        0.7069464825       -4.7509519223
 H         -7.5224992545        0.8685072404       -4.1524272072
 H         -8.2278761282        0.8528311158       -1.7857286183
 H         -8.4213949710        0.7877747257        0.8187717960
 H         -8.0710860776        0.7020746706        3.2621619707
 H         -5.8108750827        0.5200707101        4.1954274524
 H         -3.8390075033        0.4150435326        2.7053230450
 H         -4.6706518769        3.0110627260        0.0194144505
 H         -3.2554539464        5.0271624480        0.1315742310
 H          2.9688553036        4.8644455263        0.0831129534
 H          2.6131766619        7.3082455857        0.2586254969
 H          0.3367379797        8.2302410508        0.3309779192
 H         -1.6234760437        6.7417834188        0.2333892857
 H         -0.4068953751       -0.1134225642        2.4055986755
 H          1.1854664321       -0.5200808852        4.2084704394
 H          3.5877201301       -0.8507471626        3.7845796970
