92
 energy: -154.681436987422 gnorm: 0.000102325206 xtb: 6.7.1 (edcfbbe)
N           11.59945301018677       -1.85953525248055        1.26934799307695
C           10.55917385156839       -1.66371059006511        0.82599534623323
C            9.27333626940172       -1.42283293408979        0.30289810637773
C            8.17809293821558       -1.32193948118200        1.16128423839732
C            6.90214579535079       -1.08558217397247        0.66776278611991
N            5.84196504383748       -0.98816465800324        1.49069594106218
C            4.65685341680426       -0.76698064247203        0.99689919327889
C            4.45395577538264       -0.62294673304474       -0.42330291755552
N            5.48746236159162       -0.71596356770483       -1.24534682274494
C            6.70521292956977       -0.94135872683600       -0.76277403115652
C            7.81858214712612       -1.04603460866528       -1.60346264470927
C            9.08515926605341       -1.28284315222639       -1.08689410618640
C           10.18983465357489       -1.38365735993128       -1.96154038783608
N           11.07480302718391       -1.46300799879639       -2.68617709595648
C            3.06132783059415       -0.39255979535839       -0.66199661298817
C            2.27103937425789       -0.18987246889026       -1.77708464835264
C            0.89782433697095        0.00711327580861       -1.58997203012913
C            0.29976297646552        0.02123467956037       -0.34259873524819
N           -1.10651621038257        0.20259379716890       -0.23452485431721
C           -1.89177078920955       -0.93807683123807       -0.18933864700046
C           -1.29941620073853       -2.20638641829949       -0.19538434030976
C           -2.06893052066925       -3.34600734077320       -0.14208612743979
C           -3.46077689794941       -3.27121220819252       -0.07976900733999
C           -4.28847891465961       -4.47990983417929       -0.00830645592107
C           -5.42787401501544       -4.51130590106058        0.79455392160713
C           -6.20583801829004       -5.65111001626259        0.86751727172396
C           -5.86383058601182       -6.77695630600581        0.13674764800609
C           -4.73594044155398       -6.75620015142652       -0.66678886294155
C           -3.95292128629503       -5.61957994175910       -0.73729034677858
C           -4.04447142145106       -2.00850555308280       -0.08379725337139
C           -3.28567543830448       -0.85322382628414       -0.13728609281165
C           -3.98811798177110        0.47750098076835       -0.16398025982676
C           -4.85561696791378        0.58375579198786       -1.40727785872898
C           -4.45602128265067        0.58780965740820       -2.72462196228657
C           -5.42900910085210        0.68977583490623       -3.71016021517143
C           -6.77097134621159        0.78397377795614       -3.37493555364823
C           -7.17617343409945        0.77961938183529       -2.04967191854222
C           -6.21047685273016        0.67928194707364       -1.06219867600457
C           -6.32228626773995        0.65279836119337        0.38868054711534
C           -7.42824360464595        0.71337714139966        1.22006939330905
C           -7.23031893642723        0.66587595344914        2.59109638439329
C           -5.95461354076573        0.56028966962178        3.12372894746743
C           -4.84182782761981        0.49801146691015        2.29509895590589
C           -5.03470970274254        0.54541176391364        0.93262421582521
C           -3.03819602553439        1.64418774144290       -0.08561800694220
C           -3.59474511071190        2.91492856408340        0.01312827375488
C           -2.81105523374725        4.04431280841665        0.07670745821223
C           -1.42775258574868        3.90563520987812        0.04181024056324
C           -0.85236113559287        2.62795183001315       -0.06404846273246
S            0.90293403310106        2.71214312595354       -0.08153655555016
C            0.86404223810240        4.45254535644387        0.05611560441648
C            1.96913495537633        5.28633004514890        0.10653656400800
C            1.75762021916522        6.64703936803170        0.21097925587307
C            0.46572589799621        7.16367359686854        0.26361811563642
C           -0.63233780229621        6.33012815126328        0.21333391890663
C           -0.44386117208734        4.95461826404598        0.10816049968524
C           -1.64733286686028        1.47022831011213       -0.13319223784450
C            1.07537192893679       -0.20685127954401        0.82998409835152
C            0.64225799434699       -0.24923450876841        2.17279402608553
C            1.54938395331558       -0.46941216695455        3.18380277400471
C            2.92253419184150       -0.65903419316823        2.94999320551956
C            3.36794340789355       -0.62356189594178        1.65003022242546
C            2.43610215650527       -0.39897437064213        0.61442071550902
H            8.31284607044199       -1.42784487530114        2.22658958998240
H            7.67465525192641       -0.93909915709989       -2.66734616076147
H            2.68905222060983       -0.18187019266812       -2.77101851086651
H            0.27166529997329        0.16821300131977       -2.45628144042172
H           -0.22525645100067       -2.29566580718592       -0.23664063234245
H           -1.58219122326951       -4.30925659898974       -0.12514608380052
H           -5.69016142222010       -3.64300624737236        1.38176580441379
H           -7.08205105095377       -5.66292777776573        1.49929009243759
H           -6.47338441419965       -7.66647761355596        0.19329608249680
H           -4.46684428525843       -7.62981350600097       -1.24242013370500
H           -3.08524884761332       -5.60455450682095       -1.38053250752952
H           -5.12070747266108       -1.91979108275314       -0.06756602273917
H           -3.41046459976901        0.51372868008548       -2.98678905998565
H           -5.13676446612201        0.69545127891002       -4.74969025600878
H           -7.51034651941814        0.86194542861860       -4.15837952016086
H           -8.22255841206319        0.85326345036637       -1.79373804163814
H           -8.42375624035789        0.79490675924484        0.81007124724234
H           -8.08131534545355        0.71155447820285        3.25467404081930
H           -5.82450141060510        0.52511347288075        4.19516300482484
H           -3.84814776404034        0.41420909312583        2.71104107431956
H           -4.67019684277810        3.00473820348733        0.03933481390128
H           -3.25706274131806        5.02245217742175        0.15380763154134
H            2.96561149227914        4.87486831705520        0.06443193587337
H            2.60321193041256        7.31662932551664        0.25182436414038
H            0.32411954507495        8.23084659086335        0.34466709074320
H           -1.63153335073989        6.73598251921372        0.25421814157355
H           -0.40369235984873       -0.10809132218787        2.40411385295599
H            1.19717698298753       -0.49768850099696        4.20473000459590
H            3.59776722543809       -0.82617170113438        3.77473746842933
