  92
       -154.72623244
 N         11.5106357618       -1.4310811360        1.7629071959
 C         10.4709265835       -1.4079185348        1.2822021319
 C          9.1794580494       -1.3681411671        0.7053778614
 C          8.1097074937       -0.8968592475        1.4343868347
 C          6.8272164114       -0.8620854873        0.8649738514
 N          5.7953706985       -0.3940732208        1.6135389696
 C          4.6340651799       -0.3921425477        1.0282215041
 C          4.4403054250       -0.8618336199       -0.3368923417
 N          5.4185958817       -1.3127176769       -1.0685509446
 C          6.6385974190       -1.3185998668       -0.4745820339
 C          7.7406832473       -1.7925991379       -1.2045987668
 C          8.9925245518       -1.8201071784       -0.6308288385
 C         10.1022738180       -2.2983866881       -1.3673516967
 N         10.9893264394       -2.6958295809       -1.9736383524
 C          3.0338712993       -0.7285670406       -0.6602393795
 C          2.2565926650       -0.9887455240       -1.7641620915
 C          0.8853162595       -0.7138952577       -1.6908726099
 C          0.2791026260       -0.1865247986       -0.5623603975
 N         -1.1081035928        0.0543113027       -0.5348959098
 C         -1.9917425973       -1.0268180376       -0.5598162085
 C         -1.5474210584       -2.3235858063       -0.8296270621
 C         -2.4260325084       -3.3844518310       -0.8730422844
 C         -3.7871004876       -3.1996741858       -0.6445259181
 C         -4.7372584631       -4.3165423775       -0.7103364921
 C         -4.3950567059       -5.5766549260       -0.2243126706
 C         -5.2946753508       -6.6241169420       -0.2877492779
 C         -6.5495031290       -6.4325914238       -0.8412618381
 C         -6.9001616810       -5.1845766573       -1.3286805548
 C         -6.0038619331       -4.1345848825       -1.2623362857
 C         -4.2180739648       -1.9166972419       -0.3292771174
 C         -3.3459948721       -0.8428927555       -0.2737185996
 C         -3.8809560988        0.4863972307        0.1913403118
 C         -5.2028896195        0.8133893878       -0.4738427419
 C         -5.4540680681        1.0146385479       -1.8128738804
 C         -6.7546937078        1.3009078466       -2.2065936401
 C         -7.7769196910        1.3830206056       -1.2733184451
 C         -7.5279796004        1.1817239379        0.0752376519
 C         -6.2329227005        0.8955706982        0.4738318690
 C         -5.6711225416        0.6329491328        1.7904250781
 C         -6.2628641612        0.5912201990        3.0416713656
 C         -5.4710021598        0.2986450180        4.1406982307
 C         -4.1159302768        0.0456625371        3.9944010339
 C         -3.5176679203        0.0855505689        2.7420177709
 C         -4.2987641640        0.3859117509        1.6487729001
 C         -2.8924147612        1.6079877710       -0.0013773531
 C         -3.3456664660        2.9096571211        0.1998241389
 C         -2.5223610469        3.9956376259        0.0223554555
 C         -1.2149296104        3.7836460534       -0.4031604642
 C         -0.7468941484        2.4745346711       -0.6008247718
 S          0.9087017885        2.4704782972       -1.2035531708
 C          0.9701682870        4.2148673538       -1.1754667906
 C          2.0547553089        4.9936240866       -1.5429976430
 C          1.9363242145        6.3665219224       -1.4489264047
 C          0.7558213666        6.9485318275       -0.9956910834
 C         -0.3223455316        6.1688741146       -0.6313300569
 C         -0.2267622521        4.7825674399       -0.7172044878
 C         -1.5670234330        1.3586815806       -0.3653348593
 C          1.0574000664        0.0966218610        0.5977915332
 C          0.6255199004        0.6287422651        1.8322570835
 C          1.5239703488        0.8423178397        2.8513320482
 C          2.8944688490        0.5546524144        2.7305644908
 C          3.3438032335        0.0313220581        1.5435003002
 C          2.4198764348       -0.1918145091        0.4956775999
 H          8.2362209632       -0.5495643174        2.4484921159
 H          7.5839869763       -2.1329300474       -2.2168285847
 H          2.6844847557       -1.3825720108       -2.6724825270
 H          0.2713897255       -0.8938784275       -2.5617128584
 H         -0.4994997984       -2.5137333711       -0.9980545223
 H         -2.0482723358       -4.3682763427       -1.1073838348
 H         -3.4251132074       -5.7287806738        0.2265733442
 H         -5.0171971992       -7.5941592939        0.0988078343
 H         -7.2509061378       -7.2521733717       -0.8923252603
 H         -7.8764385356       -5.0299605031       -1.7648760695
 H         -6.2775757319       -3.1674116214       -1.6590199083
 H         -5.2573008358       -1.7501684919       -0.0865065258
 H         -4.6574300214        0.9507014115       -2.5398930364
 H         -6.9725755370        1.4611971246       -3.2521468509
 H         -8.7811306997        1.6064612617       -1.6027146477
 H         -8.3275253834        1.2456947684        0.7981954830
 H         -7.3193307202        0.7806342066        3.1597894895
 H         -5.9154684589        0.2626133231        5.1245068330
 H         -3.5189643055       -0.1879730551        4.8636289836
 H         -2.4637534407       -0.1263573340        2.6308427891
 H         -4.3713518698        3.0560749348        0.5026815801
 H         -2.8842883741        4.9974426554        0.1870558084
 H          2.9654272005        4.5318227304       -1.8919608584
 H          2.7689978904        6.9938346446       -1.7289823741
 H          0.6855952978        8.0238603434       -0.9294598062
 H         -1.2357109955        6.6249258705       -0.2810296551
 H         -0.4153391016        0.8801675550        1.9752925259
 H          1.1657139072        1.2513234507        3.7847970736
 H          3.5685834967        0.7437069634        3.5512308900
