  81
       -130.01052644
 N          1.5838432514        2.9853269162       -0.5360451265
 C          2.3989087515        2.1633541239       -0.4997626146
 C          3.3744214235        1.1873159262       -0.4022411394
 C          4.7571125249        1.4831892762       -0.4230727579
 C          5.2398634064        2.8261232218       -0.7866737056
 C          6.3428861643        3.3487477676       -0.1148534949
 C          6.8190306584        4.6052612093       -0.4349724908
 C          6.2077472153        5.3465539790       -1.4332830592
 C          5.1222022692        4.8230074849       -2.1155367607
 C          4.6363287124        3.5681996369       -1.7964275348
 N          5.6621049678        0.6029522915       -0.1021002204
 C          5.3255461044       -0.6645643267        0.2710262007
 C          6.3491063886       -1.5957600940        0.6414850589
 C          6.0220507359       -2.9037452160        1.0268163692
 C          7.0125046466       -3.7917355584        1.3828160086
 C          8.3454486493       -3.4020078356        1.3638522308
 C          8.6801496682       -2.1099079114        0.9817405510
 C          7.6975590859       -1.2130759867        0.6240102766
 N          4.0512852078       -1.0083511193        0.2593612756
 C          3.0737916458       -0.2072869101       -0.0841558022
 C          1.7378548928       -0.7485046187       -0.1283413414
 C          1.4256377822       -1.8611937551        0.6731276698
 C          0.1601710337       -2.3952531780        0.6787670987
 C         -0.8333022214       -1.8466206361       -0.1348403194
 N         -2.1259287327       -2.3934144053       -0.1472644319
 C         -2.3916427396       -3.7098527891       -0.4917477761
 C         -1.5131142234       -4.7584746318       -0.7089200900
 C         -2.0494957246       -5.9862572061       -1.0589171930
 C         -3.4215813704       -6.1643796298       -1.2028497525
 C         -4.2994057320       -5.1119509939       -1.0165847098
 C         -3.7834251455       -3.8735243352       -0.6618263891
 C         -4.3754168258       -2.5871243694       -0.4270701705
 C         -5.6929840932       -2.1511427743       -0.5070721223
 C         -5.9824249404       -0.8219220634       -0.2790101464
 C         -4.9442865321        0.0377375570        0.0802041174
 C         -3.6027137846       -0.3811325909        0.2580550582
 C         -2.8911701210        0.7524715650        0.7850596744
 C         -1.6037870373        0.9679754994        1.2709637106
 C         -1.2480899341        2.2344730363        1.6862773379
 C         -2.1534061449        3.2944706899        1.6423997849
 C         -3.4543656718        3.0994110896        1.2302511811
 C         -3.8240801576        1.8206469807        0.8311370489
 N         -5.0516084026        1.3735280275        0.4045221913
 C         -6.2233905406        2.1402832086        0.3173602749
 C         -6.6586414526        2.8808363066        1.4121786062
 C         -7.8133350210        3.6355099578        1.3175832751
 C         -8.5436158846        3.6514010152        0.1407113735
 C         -8.1129042834        2.9116515131       -0.9483130870
 C         -6.9552651461        2.1604329969       -0.8665021349
 C         -3.3097241923       -1.7062239434       -0.0896743084
 C         -0.5241640294       -0.7714764451       -0.9698154287
 C          0.7374377136       -0.2245587059       -0.9610548648
 H          6.8104867775        2.7625548003        0.6622105766
 H          7.6707358873        5.0073273336        0.0949466813
 H          6.5801143460        6.3293872752       -1.6822556148
 H          4.6494689012        5.3935779497       -2.9008004079
 H          3.7985510909        3.1624976465       -2.3423572362
 H          4.9827802906       -3.1966733380        1.0335528374
 H          6.7522995769       -4.7982987875        1.6782286225
 H          9.1186535608       -4.1021273837        1.6435741586
 H          9.7174902656       -1.8072971724        0.9640575840
 H          7.9442814567       -0.2065320900        0.3207089296
 H          2.1953312088       -2.2708117071        1.3090313085
 H         -0.0826273430       -3.2198886544        1.3327653489
 H         -0.4460802944       -4.6256572391       -0.6200825232
 H         -1.3865755689       -6.8216162574       -1.2273842509
 H         -3.8027227523       -7.1374749617       -1.4738611396
 H         -5.3624264902       -5.2468391351       -1.1464627226
 H         -6.4774016097       -2.8479047197       -0.7573831119
 H         -6.9947654559       -0.4552224197       -0.3467856158
 H         -0.8917879339        0.1641845789        1.3391224545
 H         -0.2445094842        2.4127408464        2.0391676145
 H         -1.8324574926        4.2781423060        1.9485476567
 H         -4.1637681810        3.9128555990        1.2106446959
 H         -6.0978128614        2.8474042184        2.3341535667
 H         -8.1484082061        4.2076811224        2.1697493079
 H         -9.4464705436        4.2388821324        0.0721813923
 H         -8.6770511403        2.9247276207       -1.8688927949
 H         -6.6039801281        1.5981326896       -1.7188564715
 H         -1.2867343604       -0.3701995033       -1.6202019044
 H          0.9586810331        0.5991695143       -1.6201253001
