89
 energy: -139.085187227619 gnorm: 0.000041558425 xtb: 6.7.1 (edcfbbe)
C           10.26036379670189        3.58431689434924       -1.74007304619784
C           10.53751432926544        2.28539045197804       -1.34032071677144
C            9.51984324119553        1.44957984690632       -0.93662109603917
C            8.18675239638439        1.88793821017815       -0.92140506448977
C            7.15317537255559        0.97136637773967       -0.48761356026164
C            5.79650243129310        1.23596788432964       -0.53745186315712
C            4.89948918220844        0.26032725611670       -0.06922757220113
C            3.47672622611378        0.39819882349963       -0.05098909536244
C            2.79465765249839        1.51410213260676       -0.57600440019601
C            1.42501738238800        1.59748760877922       -0.52552336472604
C            0.67012192013066        0.57440781786033        0.05328439969584
N           -0.72788646752696        0.67097314399897        0.11385759742325
C           -1.43612162098346        1.73845404263878        0.62138542602874
C           -0.95760189141307        2.91079990991875        1.19043442638130
C           -1.88229901241581        3.83069041091994        1.64520381775299
C           -3.24944927788964        3.58775900099347        1.54414099704152
C           -3.73075259157284        2.41069625090636        1.00148854677735
C           -2.82363161272300        1.46851180370290        0.53845904115480
C           -2.94615989142665        0.16004831137356       -0.04983658223256
C           -3.99044919626758       -0.67704965457501       -0.39833391004359
C           -3.70441695011490       -1.92083174022477       -0.98846575971750
C           -2.39757974308701       -2.32824413473970       -1.25134025794002
C           -1.34215414264642       -1.50979470854141       -0.90865078408265
C           -1.61794762809320       -0.28980058540723       -0.29664373489782
C           -4.95311509799439       -2.60928640148784       -1.24850831481296
C           -5.21550684342785       -3.85139052742562       -1.80718067510579
C           -6.53341674668002       -4.25801717377789       -1.92971798998210
C           -7.57388012894111       -3.44437414134749       -1.50452218279567
C           -7.31945420800432       -2.19921336352834       -0.94460644096030
C           -6.00984276783788       -1.79318512728126       -0.82160597219906
C           -5.47840217144326       -0.49482904958787       -0.25156527700285
C           -5.98139112945444       -0.28247550323064        1.15539586887354
C           -5.70345332070087       -1.01899861999057        2.28502753889423
C           -6.31739410106180       -0.65671675139255        3.47664763026812
C           -7.19637500194986        0.41453554346173        3.52646264394369
C           -7.47948675608673        1.15701614339314        2.39117356188213
C           -6.86575753663320        0.80594360826563        1.20037186036063
C           -6.92505645347518        1.40671718215300       -0.12439143381936
C           -7.61490647628398        2.51067442005181       -0.59702722099944
C           -7.44273807139031        2.88267750994473       -1.92078096407662
C           -6.59787933638399        2.16935339200991       -2.75750502492995
C           -5.90790779196091        1.05749830225492       -2.29281365864585
C           -6.07582888841630        0.68590064153568       -0.97771195122765
C            1.32785698201068       -0.54312152252911        0.57648196903234
C            2.69417207689672       -0.62964901560579        0.52014950033952
N            5.42349847432833       -0.91013490912662        0.40331902415372
C            6.70943112085048       -1.14458417464752        0.42332604948483
C            7.20606146318970       -2.42495355585794        0.92413419083996
C            8.57613224218951       -2.65991003360998        1.01121480005047
C            9.04430359089829       -3.87133193857011        1.48181232710786
C            8.15163640387667       -4.85830770478421        1.86915178318331
C            6.78679021720711       -4.63044493405248        1.78516115204251
C            6.31412179598461       -3.42072727397558        1.31540147333702
N            7.56791492734962       -0.23690870933493        0.00105978543040
C            7.92374718184446        3.20341629067163       -1.32478166441556
C            8.94836591670435        4.03404790508079       -1.72747005223815
H           11.05741505436485        4.24052844364277       -2.05615886919503
H           11.55666897221494        1.92578928510403       -1.34513638352494
H            9.73060199527480        0.43680473948139       -0.62802702564528
H            5.42997976930123        2.17000008291799       -0.92644066801808
H            3.34393719976169        2.31738751981547       -1.04104007621961
H            0.91674642718030        2.44874511792538       -0.95504960878148
H            0.10226163825076        3.09105907494587        1.28445093970243
H           -1.53813704874264        4.75250327005509        2.09000511059080
H           -3.94629077519496        4.32904864963429        1.90551775999719
H           -4.79059174916986        2.23224792258317        0.94457074440137
H           -2.21457422430841       -3.28041972446665       -1.72514820967764
H           -0.32396501021819       -1.79904631706272       -1.11827361807101
H           -4.40978461676514       -4.48885596431056       -2.13946847622140
H           -6.75629640757526       -5.22257318014686       -2.36216203495785
H           -8.59381168155441       -3.78328192039736       -1.61007160230500
H           -8.12907805821344       -1.56510213437528       -0.61336204289798
H           -5.02182487137129       -1.85615763517430        2.24474853528332
H           -6.10878523692900       -1.21746798866775        4.37579913914375
H           -7.66456842415103        0.67511517108287        4.46448564673628
H           -8.16192024668731        1.99290572263887        2.43573627011400
H           -8.27134447411677        3.07147284661517        0.05182655836815
H           -7.97200384687388        3.74188721765083       -2.30631907651571
H           -6.47639827445751        2.48124365400581       -3.78434329316286
H           -5.25300081330460        0.49866453953715       -2.94542172502261
H            0.74911528228936       -1.32473924528561        1.04713368552399
H            3.20496061752920       -1.48610578549104        0.93250936550099
H            9.25864928450604       -1.88070344078003        0.70811052581784
H           10.10757013522591       -4.04967879135340        1.54817836101514
H            8.51933981130853       -5.80520550911420        2.23645955414376
H            6.09207123073491       -5.40056436331372        2.08709284306338
H            5.25444794699063       -3.22940130094788        1.24205638553636
H            6.91489685670169        3.58650485114084       -1.31640330412466
H            8.72463280386917        5.04620692461810       -2.03347863218009
