89
 energy: -139.159804438234 gnorm: 0.000048675866 xtb: 6.7.1 (edcfbbe)
C           10.14569871147226        3.93876935822346       -0.80117996864636
C           10.38489536582131        2.61811665916834       -1.14582100871121
C            9.41057830757595        1.66129238292486       -0.93896925009557
C            8.17816851100478        2.01460282856061       -0.39230124209661
C            7.16158765233413        0.97326863143783       -0.19359159359329
C            5.79421335819608        1.24717794593024       -0.19162124661773
C            4.92838540641665        0.17062260885710       -0.00154166657534
C            3.46892923992275        0.31706338468010        0.02276060185689
C            2.81870431549497        1.37634174124755       -0.60746367929903
C            1.44339321434769        1.47926694552849       -0.56856870839876
C            0.68653862547499        0.52776267291956        0.11147195646259
N           -0.70719303296965        0.63920289945107        0.15607058149622
C           -1.41367766618217        1.76714463947832        0.52321348311983
C           -0.93484631365646        2.99136073666327        0.96622993922693
C           -1.85806874456909        3.96126673735742        1.30493575779785
C           -3.22564166832338        3.71717710682595        1.21472220237536
C           -3.70693536874433        2.49172233098965        0.79908293693230
C           -2.80024166841861        1.49852062591054        0.45198507098006
C           -2.92924546785223        0.13515546016478        0.00983935118593
C           -3.98311670752813       -0.71811891075279       -0.27616222304646
C           -3.70810599530152       -2.01755274370459       -0.72504328203242
C           -2.40503137944808       -2.47134069304699       -0.90871085543218
C           -1.34119067279757       -1.63769289567229       -0.62811187525979
C           -1.60783562456152       -0.35814578033628       -0.15713049724092
C           -4.96567978522706       -2.70834982967212       -0.95161316733946
C           -5.23908982183499       -3.99506758275597       -1.38667381511512
C           -6.56228759502998       -4.38696492811144       -1.50907286996128
C           -7.59579804961912       -3.51406107127038       -1.20425100306137
C           -7.32932970884203       -2.22301139336414       -0.76817605845399
C           -6.01464173734007       -1.83264984860572       -0.64602790828562
C           -5.47057076867593       -0.49276395924330       -0.19399008644082
C           -6.01478194554853       -0.13440060408944        1.16680310641088
C           -5.78855954894119       -0.75975032724413        2.37246320016981
C           -6.43877255537123       -0.27540540196428        3.49969819769940
C           -7.30285349736539        0.80552673412207        3.41254222219687
C           -7.53390326999970        1.43656610134725        2.20063969762674
C           -6.88362957500984        0.96346025436977        1.07317310174261
C           -6.88741669174508        1.43161980254059       -0.30527262491907
C           -7.54120160815922        2.49347511985721       -0.90767383050031
C           -7.31628754679232        2.73229085948976       -2.25403125275160
C           -6.45490456015593        1.92915878417717       -2.98591149962498
C           -5.80130341376182        0.85837730596053       -2.39062677550847
C           -6.02150025395434        0.61885890386813       -1.05272046889622
C            1.33046183275412       -0.53544308576387        0.74203639779570
C            2.70349905196647       -0.63995172025412        0.68923906879250
N            5.40090612454247       -1.05977869016370        0.18609029491283
C            6.71696749705269       -1.23364926890320        0.16044568325822
C            7.22438905438292       -2.59469379890931        0.35802546268651
C            8.59242349907821       -2.81975984512159        0.49534447071936
C            9.06831209472805       -4.10294532036743        0.68371420405887
C            8.18699049386604       -5.17143849803001        0.73600819516831
C            6.82507941281220       -4.95338494804642        0.59914341786872
C            6.34306946965822       -3.67241884931128        0.41132467487292
N            7.60947640144789       -0.26876551894325       -0.03038770849698
C            7.94851902280029        3.34263845200757       -0.04132944494956
C            8.92898133066453        4.29607706603492       -0.24406098124923
H           10.90725458305154        4.68773922633674       -0.96130531580312
H           11.33471722352363        2.33575221299440       -1.57578056472532
H            9.58105540721841        0.62837842814566       -1.20037585486733
H            5.42465471137877        2.24858913925463       -0.33280733737059
H            3.38412342635933        2.11033053938133       -1.16181736660488
H            0.94291157119308        2.28670973868329       -1.08201621013879
H            0.12485031701452        3.17735553021491        1.05611925835452
H           -1.51180322942776        4.92446668214623        1.64975478874144
H           -3.92098800144185        4.49792892782184        1.48445010773658
H           -4.76684901634274        2.31176220570147        0.75095117885078
H           -2.22751131493720       -3.47110688119528       -1.27464401477615
H           -0.32547293278686       -1.96765074779110       -0.78411054335905
H           -4.43874531250227       -4.67975554080911       -1.62535669948344
H           -6.79339189888123       -5.38702409891733       -1.84653780992440
H           -8.61977352323647       -3.84189780224801       -1.30683622561181
H           -8.13362832163248       -1.54177104088259       -0.53021214860568
H           -5.11905466397894       -1.60500280042492        2.43864815348973
H           -6.27104244123267       -0.74799395772856        4.45635538396987
H           -7.80068609738481        1.16174108277885        4.30276103848992
H           -8.20522086560734        2.28039378049503        2.13825978032575
H           -8.21011082283283        3.12409621380836       -0.34067800802284
H           -7.81666191862188        3.55720906766159       -2.74022174926418
H           -6.29179244557149        2.13803290069744       -4.03303560651259
H           -5.13351293319976        0.22947789418995       -2.96129223703240
H            0.74671865963296       -1.26416566197940        1.28421871184611
H            3.21297478596204       -1.45731766133834        1.17506369407128
H            9.26368299437333       -1.97612234107423        0.45612009593962
H           10.12962128428958       -4.27399332894644        0.79153143003297
H            8.56153692421351       -6.17406432289627        0.88345146600833
H            6.13921480962618       -5.78726859088243        0.63884677153677
H            5.28657540197121       -3.48533899986434        0.29911252979841
H            7.01244096033890        3.63052513608724        0.41438608053407
H            8.74424321622326        5.32294661259275        0.03627758753494
