89
 energy: -139.159511856106 gnorm: 0.000040377080 xtb: 6.7.1 (edcfbbe)
C            9.63238751629115        4.43074527825424        0.82413650974030
C           10.06897084942025        3.13047083388489        1.02095703389218
C            9.21217339426715        2.07089076146562        0.79568043467825
C            7.90195211716785        2.29790653277804        0.37842583703770
C            7.01338650027496        1.14987261632781        0.15608268620737
C            5.62693565482873        1.23810079244804        0.27906505348643
C            4.89155639794024        0.07603268136073        0.04789853606675
C            3.42815593416979        0.03102120563019        0.14661463807951
C            2.63973266561033        1.16225461369491       -0.05291318021782
C            1.26565729213030        1.08789227980627        0.04899525698838
C            0.64902514688776       -0.12414268545265        0.35062733899553
N           -0.74391524909142       -0.19862696487476        0.46195044356540
C           -1.43736812829467       -0.74066543441195        1.52577325265809
C           -0.94437206943408       -1.28331882125396        2.70338801976948
C           -1.85654683987469       -1.73660078918261        3.63620028686659
C           -3.22682524455158       -1.64409259754288        3.40836866203473
C           -3.72217413281989       -1.08183488368678        2.24885646417569
C           -2.82689259648098       -0.61845019007548        1.29337097093301
C           -2.97154519085035        0.02546129455312        0.01459326129321
C           -4.03474871731074        0.41052846745535       -0.78657951867507
C           -3.77435914320208        1.00816689036168       -2.02782183123960
C           -2.47633498234786        1.21207145725162       -2.48751458414356
C           -1.40340775111733        0.83808533131901       -1.70372087725442
C           -1.65567531411211        0.26949987330660       -0.46138486807065
C           -5.03958044435864        1.31767632350978       -2.67079973230709
C           -5.32745121792897        1.90744856711640       -3.89104112622796
C           -6.65497028440008        2.07949727745058       -4.24815265341726
C           -7.67862424832388        1.67204199899060       -3.40606148386087
C           -7.39766287373731        1.07990897213082       -2.18195622084780
C           -6.07868281852809        0.90831927867757       -1.82620004663835
C           -5.51965578828447        0.29474911187203       -0.55877932514343
C           -6.05438048855043       -1.10308403074196       -0.36705134382783
C           -5.82910758638399       -2.22061106775418       -1.13918537231736
C           -6.46678280316663       -3.40366188002825       -0.79008538706919
C           -7.31756291965722       -3.45692143390973        0.30352406596949
C           -7.54765230933863       -2.33387252324263        1.08205526468319
C           -6.90983251615012       -1.15197595889696        0.74418272624689
C           -6.91437131711325        0.15755557695474        1.38014468205186
C           -7.55838641252355        0.61962311863363        2.51574701729258
C           -7.33727231987264        1.92741739763683        2.91709395162212
C           -6.48927439087726        2.75869845731047        2.20121906019565
C           -5.84543503666090        2.30464652043914        1.05782537094452
C           -6.06154649829939        1.00525109634415        0.65694389916163
C            1.43114767927114       -1.26171709310204        0.54069946515820
C            2.80317688680576       -1.18135107070033        0.43718431175891
N            5.49965845919804       -1.06738499756366       -0.25868660546227
C            6.82486277374207       -1.06573491141926       -0.34569186626321
C            7.48341247854015       -2.33232215557869       -0.67906989950486
C            8.87158986317863       -2.39638132986578       -0.77988470474377
C            9.49000277537509       -3.59186510686238       -1.09092517633896
C            8.73218198844096       -4.73251405955987       -1.30486663055964
C            7.35068105589460       -4.67404788392503       -1.20941243545235
C            6.72662387633051       -3.48144851151035       -0.89861309452007
N            7.59917081338858       -0.00385065062994       -0.15308995455066
C            7.47369674169981        3.60743873605376        0.17486690347315
C            8.33625474763347        4.66502828221677        0.39568102077165
H           10.30165966644627        5.26015767126059        0.99931883529810
H           11.08079110350926        2.94465565917327        1.35026394494259
H            9.53670842151402        1.05261532479372        0.94371666988941
H            5.14917854458231        2.15387033807188        0.58386502266718
H            3.09765625292748        2.10728555939881       -0.30390601808159
H            0.66083712079029        1.97161726379938       -0.08992026744985
H            0.11724142593105       -1.33963676984674        2.89144075385706
H           -1.49922627869610       -2.16671516062117        4.56020715075601
H           -3.91323312820124       -2.01023787683813        4.15710796387665
H           -4.78408190146937       -1.00166642939438        2.09402637605321
H           -2.30997307394920        1.65683249982916       -3.45682504421030
H           -0.39110872308659        0.97090198284193       -2.05404285426323
H           -4.53486622085516        2.22704242902619       -4.55137568395007
H           -6.89726152420785        2.53768807678804       -5.19619581286876
H           -8.70621637937923        1.81667172467605       -3.70550197977112
H           -8.19428051894177        0.76168311312116       -1.52489111234453
H           -5.16943972095930       -2.17728242263294       -1.99361453940153
H           -6.29927988002705       -4.29349159795868       -1.37898403566433
H           -7.80538154966920       -4.38799537906240        0.55322158363263
H           -8.20821202733379       -2.38105959727598        1.93530386629998
H           -8.21701893366536       -0.02529344065559        3.07865532779091
H           -7.83011777648950        2.30447607937873        3.80148580464087
H           -6.32909429930543        3.77298688345811        2.53628945827166
H           -5.18837770931545        2.95319324999379        0.49676447336999
H            0.95226237717452       -2.20609079354019        0.75193490508966
H            3.41797470533637       -2.05658569281686        0.57692722170818
H            9.44593129442696       -1.49840524453981       -0.61449114872180
H           10.56664636020564       -3.63783511748933       -1.16832712874720
H            9.21804528980132       -5.66643338964204       -1.54775931058144
H            6.76066519679445       -5.56307869166440       -1.37924881314091
H            5.65236266695662       -3.41773314102500       -0.82472575400321
H            6.47236418778571        3.80273492415330       -0.17990045476241
H            7.99684905651820        5.67730237179591        0.23051809267618
