71
 energy: -110.443205606100 gnorm: 0.000038909965 xtb: 6.7.1 (edcfbbe)
C            0.78067662486521        3.23227882598958        1.91123536112192
C            0.37231393437271        4.35878309100285        1.21173738897795
N           -0.54992236679913        4.32471957300950        0.26370983131907
C           -1.10230122939341        3.16185840205627       -0.02883366100031
C           -0.76779681577923        1.96134841377278        0.59788804265500
C           -1.43692428829319        0.70251519915598        0.23199470586140
C           -2.82542317574731        0.67040129631650        0.19577551051187
C           -3.50641966404965       -0.50647768462941       -0.09322910750996
N           -4.90754043230997       -0.51726187474567       -0.13001248863519
C           -5.70249111092167        0.36208240441009       -0.83882765446679
C           -5.33599074391945        1.39004696017870       -1.69606968463864
C           -6.34347904830850        2.11151820324991       -2.30769580895911
C           -7.68718329582481        1.81798743294348       -2.08306115653454
C           -8.05784459818851        0.78015535994154       -1.25100969564828
C           -7.06268270363179        0.03939569363620       -0.62575868888514
C           -7.07959547787423       -1.09067249098688        0.26125542136231
C           -8.09833891158365       -1.83940821120443        0.83697956518630
C           -7.76086303513304       -2.87541061544977        1.68529759160157
C           -6.42739595501243       -3.15954032985747        1.97371043695373
C           -5.39652963231435       -2.42977996518209        1.41275369100382
C           -5.72869647245214       -1.40290947845460        0.54014809522445
C           -2.78434505736382       -1.67087196892813       -0.34145460112048
C           -1.40483285703917       -1.64261420023237       -0.30474738294043
C           -0.71012798561275       -0.46714221025172       -0.03188238457540
C            0.76193444453946       -0.47361811393115       -0.06733637957934
C            1.48120622177669       -1.43596867625093        0.63742305679097
C            2.86174577415788       -1.44717975858287        0.61207260425203
C            3.55448147407180       -0.50539950858849       -0.14395475749122
N            4.95668132255994       -0.51041923454534       -0.16933806163838
C            5.77109787417522        0.57994782737248        0.06682492618018
C            5.43008720554510        1.88212648440772        0.40549553843224
C            6.45522786053824        2.78404901143664        0.61835951075174
C            7.79204549053995        2.40581378222076        0.50813789578783
C            8.13808139818229        1.10712122686620        0.19151372446408
C            7.12500861129728        0.18216950692941       -0.02757744283375
C            7.11738585251810       -1.21862499326427       -0.34546663821466
C            8.12026403086119       -2.15084921685637       -0.58007139290880
C            7.75993909137409       -3.44666227680066       -0.89249725248984
C            6.41887464083220       -3.81440946662767       -0.98506494695574
C            5.40371251800216       -2.90519848062422       -0.75610573937258
C            5.75929597575187       -1.60635610974842       -0.41947391492046
C            2.84152763167719        0.44331222576269       -0.87293713961529
C            1.46225117360282        0.46131231508136       -0.82683122647737
C            0.19990083465413        2.01574854141655        1.59967866780413
H            1.53081609853364        3.30746390758567        2.68334468807569
H            0.79470956761225        5.33407859233375        1.41630605636221
H           -1.84263124847893        3.18517358872827       -0.81906483477299
H           -3.38457648795781        1.56495066704613        0.42797736971754
H           -4.29768016422323        1.61321567045973       -1.89000700370415
H           -6.08362960920389        2.91863363888912       -2.97723767834770
H           -8.44592734148025        2.40738888100936       -2.57679029522559
H           -9.09911669234008        0.54348892281505       -1.09016348693029
H           -9.13226037793787       -1.60986908924013        0.62619109098163
H           -8.53834890120145       -3.47075194501242        2.14138257224104
H           -6.19450413419452       -3.96600323847350        2.65393695452118
H           -4.36741529279505       -2.64761036695124        1.65556958557502
H           -3.30702510375693       -2.58456761471695       -0.58041507081175
H           -0.84747921222317       -2.54222074641968       -0.52061852297039
H            0.95189037861042       -2.16324216318439        1.23572412411715
H            3.41091199861273       -2.17609107540643        1.18909947551676
H            4.39826262923757        2.18267544890476        0.50727973857676
H            6.21481007498524        3.80450440952466        0.87957875682633
H            8.56490409328739        3.14060581597269        0.68037340594640
H            9.17404247231915        0.81103927982041        0.11917051326461
H            9.15934341558577       -1.86232293458132       -0.52336260177693
H            8.52471882989146       -4.18696445028556       -1.07680320952272
H            6.16742986249242       -4.83223639404197       -1.24611302316107
H            4.36832125431598       -3.19660778408495       -0.84823397342416
H            3.37388021077337        1.15679431099056       -1.48399339494543
H            0.91919080840225        1.19569069775503       -1.40341126447702
H            0.48024285704754        1.11794687410602        2.13103602432104
