71
 energy: -110.350535548611 gnorm: 0.000031784518 xtb: 6.7.1 (edcfbbe)
C            0.80249879176532        3.33163303935418        1.92856195017118
C            0.23605421350148        4.47576678372485        1.37849657779470
N           -0.79309355196304        4.41699439109205        0.53626088555007
C           -1.30633171820532        3.25197290756866        0.23113385188790
C           -0.83704674296459        2.01844375853402        0.73154876013220
C           -1.44063478487384        0.76835088343428        0.35354062979754
C           -2.81738248681812        0.70835643693773        0.15790052675149
C           -3.49674857719898       -0.49443398421398        0.08184903176336
N           -4.87681335440494       -0.52364816726156       -0.08859343244228
C           -5.58956941017581        0.22018925465673       -1.01077810695011
C           -5.12829068159875        1.08795569767487       -1.99154924242230
C           -6.06231058532989        1.68786364840655       -2.81588590096392
C           -7.42438018385382        1.42729946804395       -2.68023441088887
C           -7.88778390652922        0.53948228906347       -1.72661828976931
C           -6.96857746262857       -0.07456857279429       -0.88809436651522
C           -7.08591242614119       -1.04200878554933        0.16937563591673
C           -8.16487214591646       -1.68754158529752        0.75560326958302
C           -7.92646288381467       -2.55816094206217        1.80339221625928
C           -6.63416237628117       -2.77068659044419        2.27844223194162
C           -5.54366220435542       -2.13729976635852        1.71110722928743
C           -5.77189470506398       -1.28878671590923        0.63567696912667
C           -2.76755394274901       -1.71291106076194        0.21386240074081
C           -1.41423675121711       -1.68340205430594        0.34324058179803
C           -0.67412250378255       -0.47234088073521        0.32638637325001
C            0.73667666546093       -0.49300572337027        0.18646695646836
C            1.52808641989532       -1.57759940937043        0.66127068719944
C            2.88765535641666       -1.58354058259786        0.54488826980321
C            3.56407352788286       -0.51267752940446       -0.07401114230412
N            4.94926918301409       -0.51881284846481       -0.18447188241008
C            5.78981581738933        0.54223019629330        0.10060034291343
C            5.48657596016683        1.80077972307022        0.60259037787415
C            6.53283055374993        2.67442028503470        0.83506473188863
C            7.85405170316738        2.30856289975875        0.58611814665327
C            8.16569683494449        1.04641735840066        0.11518855122915
C            7.13200599394111        0.15258847921416       -0.12511060709128
C            7.09059431897739       -1.21229146164913       -0.57500013281560
C            8.06689014281603       -2.11669835686172       -0.96744268444018
C            7.67439331959160       -3.37459145459492       -1.38664114563606
C            6.32676582878879       -3.72481037969394       -1.43724940255060
C            5.33653765629961       -2.84000258200408       -1.05180446766008
C            5.72556963667632       -1.58711296210890       -0.59642551017844
C            2.80442511402665        0.55365956043553       -0.58293205673707
C            1.44405971756423        0.56677471078224       -0.45869460580159
C            0.26787949915953        2.10242291975558        1.61264823110495
H            1.63367900991594        3.41448194299152        2.61306268216184
H            0.60120711921809        5.46632382261083        1.61004425888099
H           -2.11035920672736        3.28064164336906       -0.49371198951070
H           -3.39262720957778        1.62283766813182        0.17813036034993
H           -4.07363980664148        1.27855785594915       -2.11832977090063
H           -5.72806604595445        2.36998338311771       -3.58365678318979
H           -8.12428149039393        1.91891411305501       -3.33961130158665
H           -8.94158336177595        0.32288349913439       -1.63717201187466
H           -9.16911912258981       -1.50687862559836        0.40302861905522
H           -8.75273685636339       -3.07220368109185        2.27177578775796
H           -6.48076409801814       -3.43904460798639        3.11285111910814
H           -4.55072377481810       -2.28836446820694        2.10538582109688
H           -3.29611101500080       -2.65024505171634        0.13658867353007
H           -0.87578712956548       -2.61847338376447        0.36070193070713
H            1.04786369579769       -2.38589724057325        1.19092203226037
H            3.46568278418147       -2.38926920762253        0.97297901004931
H            4.46905094580136        2.08807201451371        0.81715859714998
H            6.32085918909705        3.66024433160877        1.22203187110234
H            8.64414585009176        3.01972437059444        0.77666320143207
H            9.19136915239271        0.75723967667748       -0.05739513332390
H            9.10986647861631       -1.83861133915157       -0.95079038014430
H            8.41929124309041       -4.09394937248744       -1.69321927924672
H            6.04837693313182       -4.70639885204984       -1.79145907770132
H            4.29498524054623       -3.11331352154537       -1.12058719555381
H            3.30558584867046        1.34647562419654       -1.11913382185590
H            0.88149910350163        1.35833241256568       -0.92875288503109
H            0.65166635317010        1.20577423948568        2.07632194689731
