71
 energy: -110.442635740609 gnorm: 0.000093032992 xtb: 6.7.1 (edcfbbe)
C            0.75683089989660        2.78198108355961        2.56790946812549
C            0.32898942175347        4.03103087660204        2.14143966695867
N           -0.61052593751135        4.19799521211924        1.22507545584355
C           -1.16107820673571        3.12307225945815        0.69188005579301
C           -0.80951502858054        1.81697986771020        1.03336246393796
C           -1.47449465699337        0.66451065908762        0.40434282650953
C           -2.86306806616777        0.63454263207681        0.35972743439883
C           -3.53825050878841       -0.45212811919790       -0.18375799892573
N           -4.93931510090569       -0.45978872526921       -0.22913256716951
C           -5.73501911434261        0.54616994041925       -0.74180491201194
C           -5.36959996278046        1.74019279759038       -1.34729458630406
C           -6.37728385554024        2.56777361000674       -1.80463870706414
C           -7.72019226307386        2.21854877940753       -1.67487231211066
C           -8.08940007220490        1.02112906071847       -1.09472158926416
C           -7.09396469624264        0.17218601179813       -0.62753424100091
C           -7.10950417565759       -1.12411949632244       -0.00849151093561
C           -8.12726159777245       -1.98890149892897        0.37379946607347
C           -7.78928326614700       -3.18176734971495        0.98178906014867
C           -6.45668299447253       -3.51025896549263        1.22324642014088
C           -5.42682045738846       -2.66728885732258        0.85087037896904
C           -5.75900676300216       -1.47779675054059        0.21757762071486
C           -2.81061373725021       -1.53027138974094       -0.68081026210497
C           -1.43137266502443       -1.50486506951285       -0.63608061048532
C           -0.74241794006784       -0.41510422478075       -0.11020423804327
C            0.73007203177772       -0.40858649263559       -0.14813061146939
C            1.45264186920732       -1.49918699799831        0.33017431731898
C            2.83268173720234       -1.50814819727468        0.28487532534240
C            3.52110922735994       -0.42029761098166       -0.24489563442471
N            4.92339026859561       -0.42462585097060       -0.28576600350245
C            5.76076170498666       -0.68761905358729        0.78028373910411
C            5.44798764413802       -0.94783107224154        2.10737001199232
C            6.49203537707603       -1.15488698946361        2.98870652888622
C            7.81998541421633       -1.09842280648409        2.56965134771843
C            8.13819498397564       -0.81683536309158        1.25581724394729
C            7.10576646890148       -0.60482222054251        0.35083795372824
C            7.06775743416749       -0.28019030537875       -1.04791931656834
C            8.04952959254817       -0.08635210912793       -2.01148618758585
C            7.66037690447695        0.20082054788915       -3.30479458765670
C            6.31143102083632        0.28051207204168       -3.64592303348119
C            5.31672707315695        0.09125943378109       -2.70554645721956
C            5.70166815088376       -0.17463866715958       -1.39877016881288
C            2.80576098652429        0.66866723058095       -0.73617800843551
C            1.42612115402273        0.66969659832375       -0.69016393404262
C            0.17556074673438        1.65888945195107        2.00697511818166
H            1.52176445400083        2.69239630892424        3.32356701512041
H            0.74977254857829        4.94108646979355        2.54900702777955
H           -1.91473434129479        3.31340249951703       -0.06233029234410
H           -3.42686488191352        1.45315357094758        0.78244722468487
H           -4.33183550324155        2.01125378343548       -1.46909942515897
H           -6.11817464432707        3.50423423280022       -2.27706355797860
H           -8.47915988191174        2.89332727332777       -2.04295253830021
H           -9.12950752803901        0.74381951929790       -1.00889497049072
H           -9.16073715348787       -1.72756157974810        0.20141120286970
H           -8.56595386382360       -3.86875405812842        1.28468844242851
H           -6.22378885032454       -4.44359125298863        1.71515317179513
H           -4.39873747395188       -2.92410966753856        1.05697471919535
H           -3.32891970828440       -2.37096272708355       -1.11632357613089
H           -0.86943951594337       -2.33179990657517       -1.04458232835329
H            0.92578157963834       -2.34259047315171        0.75228233752823
H            3.38484921139064       -2.36179397543667        0.64886701681201
H            4.42305538973192       -0.97879782649996        2.44530990956513
H            6.27434781235799       -1.36249533303988        4.02645660459945
H            8.60844104680894       -1.26901705454875        3.28812344124153
H            9.16758995787735       -0.75817151193700        0.93482408703306
H            9.09466324990913       -0.16340404932617       -1.75080410975059
H            8.40824919171425        0.35738077441253       -4.06840227251543
H            6.03719482046619        0.49226964596600       -4.66930147141185
H            4.27474040805907        0.13938115210568       -2.98393646916817
H            3.33676563491986        1.51651091553292       -1.14241974039183
H            0.88026154462296        1.51449640935774       -1.08381715329008
H            0.46966545068750        0.66911391923457        2.32402227941481
