  77
  -130.352525551900        1.00000000000000      !
 O         -4.9715174891       -2.6883062330       -2.2424568222
 C         -4.4327191408       -1.9499695168       -1.4137637211
 C         -2.9784810361       -1.9818227044       -1.1811172329
 C         -2.1520070408       -2.4175274326       -2.2256826256
 C         -0.7819121981       -2.4277319925       -2.0879792341
 C         -0.2034122899       -2.0183830213       -0.8878951928
 N          1.2081655637       -1.9751826288       -0.7415720421
 C          1.9553808697       -1.0396973119       -1.4444797260
 C          1.3721087007       -0.1298901951       -2.3221026607
 C          2.1443438119        0.8042049176       -2.9903887601
 C          3.5150624145        0.8394296501       -2.8076392309
 C          4.1148174245       -0.0604419105       -1.9412275570
 C          3.3466492887       -0.9865331335       -1.2574935594
 O          3.9990489299       -1.8305803987       -0.4017880849
 C          3.2477446368       -2.7376779435        0.2928494114
 C          3.9196348360       -3.5863866741        1.1552842595
 C          3.2213890420       -4.5387350483        1.8789394042
 C          1.8505617401       -4.6462898892        1.7256125802
 C          1.1721906249       -3.8049977296        0.8616950284
 C          1.8547711785       -2.8292844921        0.1410038544
 C         -1.0173718320       -1.6413262055        0.1767409687
 C         -2.3869734662       -1.6225243918        0.0332024515
 C         -5.2130696720       -0.9537969260       -0.6593369768
 C         -6.6204260218       -0.9858339101       -0.6864428559
 C         -7.3092478342       -0.0109718230        0.0140790889
 C         -6.6215875054        0.9715717541        0.7041050846
 C         -5.2140642128        0.9554220265        0.6577049817
 C         -4.4359936858        1.9600644176        1.4018447872
 O         -4.9755812786        2.7037154805        2.2257370475
 C         -2.9818899739        1.9933876824        1.1682477454
 C         -2.3890542582        1.6274070277       -0.0434797686
 C         -1.0191058306        1.6429088318       -0.1848385185
 C         -0.2065543175        2.0244049515        0.8793313660
 N          1.2054313694        1.9753564332        0.7377942002
 C          1.9455462598        1.0388463354        1.4466050142
 C          1.3537934572        0.1310274103        2.3206127694
 C          2.1188225211       -0.8055291850        2.9937075314
 C          3.4905598198       -0.8448814200        2.8198193907
 C          4.0988462460        0.0540325320        1.9583322683
 C          3.3380073633        0.9826190282        1.2698379689
 O          3.9985994204        1.8267268009        0.4203637341
 C          3.2537157481        2.7330040070       -0.2823562296
 C          3.9334269125        3.5798804948       -1.1404416868
 C          3.2416225413        4.5298695284       -1.8733630537
 C          1.8691531641        4.6363424178       -1.7344459698
 C          1.1829899494        3.7975986887       -0.8741854480
 C          1.8594217695        2.8253662064       -0.1430931183
 C         -0.7863846817        2.4421198304        2.0759731908
 C         -2.1566580454        2.4346614817        2.2114789630
 N         -4.5826073349        0.0038321487       -0.0049139509
 H         -2.6169432611       -2.7331297024       -3.1475665684
 H         -0.1491038186       -2.7494187883       -2.9022732457
 H          0.3070208054       -0.1676810445       -2.4862492005
 H          1.6681450884        1.5052286229       -3.6580481975
 H          4.1173928740        1.5608711393       -3.3352829156
 H          5.1791744465       -0.0553393567       -1.7716836127
 H          4.9896191952       -3.4859370005        1.2396831286
 H          3.7502611237       -5.1961384965        2.5504684041
 H          1.2997469942       -5.3937768648        2.2748631542
 H          0.1064479284       -3.9071288753        0.7340867678
 H         -0.5605705854       -1.3637634435        1.1140020422
 H         -3.0007849072       -1.3327577584        0.8702767850
 H         -7.1076509702       -1.7699242204       -1.2428866603
 H         -8.3900679744       -0.0172367035        0.0220399405
 H         -7.1093047671        1.7504639600        1.2673951054
 H         -3.0020228661        1.3344418210       -0.8801119074
 H         -0.5612317410        1.3586358791       -1.1195883892
 H          0.2878373983        0.1723935961        2.4777793545
 H          1.6362042017       -1.5052367964        3.6581196274
 H          4.0872314188       -1.5682983064        3.3512260249
 H          5.1644114175        0.0464052973        1.7967290190
 H          5.0042586014        3.4798613564       -1.2141334639
 H          3.7766344734        5.1861521836       -2.5411255579
 H          1.3231703675        5.3811923528       -2.2920331849
 H          0.1159723929        3.8991679644       -0.7572820525
 H         -0.1541687110        2.7665030176        2.8899327755
 H         -2.6228224207        2.7567711501        3.1303691530
