92
 energy: -119.393400718842 gnorm: 0.000046782631 xtb: 6.7.1 (edcfbbe)
C            4.86162304969226       -1.25762296077820        2.15667219430780
C            4.75807581103586       -0.92025492283716        0.66928205339567
C            6.07194487723359       -1.22079031630662       -0.05520673833072
C            4.34428749885285        0.51339323923564        0.44892925277706
C            5.14385047803952        1.55203633523046        0.90593555286837
C            4.79947469453563        2.87467794942110        0.68900263581241
C            3.63539469415954        3.17890935958567        0.00165736404442
C            2.82510496186126        2.15984273671736       -0.45901496353574
C            3.15477630929936        0.82597595304949       -0.22604963935937
P            2.17321734265435       -0.52623426160599       -0.99708423905392
C            1.25422286791274       -1.21196892765373        0.41408981705502
C            1.31321669700792       -0.59874795357358        1.67007679039141
C            0.75882488680694       -1.20499641837114        2.77736207648664
C            0.15714319118996       -2.44752688070621        2.64763305427476
C            0.10191766953416       -3.06791522717696        1.41094467164692
C            0.65169228205539       -2.47886426615406        0.28195135297638
C            0.72565701975637       -3.20953779080852       -1.03446283481875
C            2.06423431390903       -3.95209545427680       -1.12272119412629
C           -0.42214283978603       -4.19110000760484       -1.26207020119061
C            0.97595167639858        0.34020390416579       -2.03433234366851
C            1.51494229369984        0.77651546116681       -3.24515414398987
C            0.76522953775882        1.45837202242160       -4.17620849872506
C           -0.59625859804853        1.69806542258205       -3.89782536080675
C           -1.15471933897920        1.25509622423284       -2.73486374070434
C           -0.42385030526838        0.49321863994177       -1.78206342343297
P           -1.24400399999065        0.17638955213838       -0.22216772007795
C           -2.52917197837203       -1.08057213206749       -0.60955980113200
C           -2.61712317166936       -1.57772006676523       -1.90986210482209
C           -3.59045009156862       -2.49405275232321       -2.25401115401155
C           -4.46737644219166       -2.95829447678848       -1.28503717324598
C           -4.34758082472078       -2.51230234062274        0.01913860271157
C           -3.37757975663934       -1.58805059421113        0.38676604830073
C           -3.25813382051379       -1.14807237823329        1.82338697139881
C           -3.22721454868814       -2.34437573494746        2.77784980133485
C           -4.40176298274793       -0.21046921599902        2.21750094241243
C           -2.27284610654138        1.63814501183432        0.13682636751832
C           -3.54001231541928        1.73934750659867       -0.46736347520943
C           -4.25251247850612        2.91652750735993       -0.41497622984228
C           -3.72781578035476        4.01812450522210        0.24733886494473
C           -2.47960999905845        3.92456318986179        0.85170332351668
C           -1.73801632586330        2.75904641452900        0.80219177910064
C           -0.41075154615796        2.63507756573057        1.50052788258341
C           -0.62917828037640        2.18566309210576        2.94700215679276
C            0.42178198670098        3.91382807104089        1.45817289575549
H            3.91459328435836       -1.06431005990684        2.65552928303691
H            5.63506874532667       -0.66312678372137        2.63699227701199
H            5.10885977352170       -2.30957812500486        2.28291659795957
H            3.97861936705945       -1.56123984311054        0.23405542783121
H            6.32567541734598       -2.27348424080364        0.04992481965896
H            5.97981468533367       -0.99075662607253       -1.11515400732235
H            6.88621108220905       -0.62821816002888        0.35485024849697
H            6.05879569285625        1.32650180801452        1.43414460585583
H            5.44101698169009        3.66657650813466        1.04806159568122
H            3.36115678544667        4.20846759776478       -0.17832967450627
H            1.91969289611048        2.39656880495932       -1.00082361596959
H            1.80782182376288        0.35716376925006        1.76834620224116
H            0.81249391169554       -0.72349877155637        3.74264120257027
H           -0.25105295795910       -2.94136389509495        3.51681335257268
H           -0.35235358247047       -4.04371618767553        1.33342369048267
H            0.69983491991118       -2.45381925097284       -1.83287141418688
H            2.89635255064004       -3.25219670566071       -1.06925778022042
H            2.12999009485285       -4.49211015575176       -2.06444462207643
H            2.15582369982349       -4.66278405189277       -0.30364888466355
H           -0.30510795664887       -5.07795366237165       -0.64336150348602
H           -1.37957854947741       -3.72791247651805       -1.03950911439225
H           -0.42924777275422       -4.50961151345934       -2.30227858305988
H            2.56810237335221        0.59319048967553       -3.42938577493629
H            1.20650821729695        1.81248168636049       -5.09512836821813
H           -1.20601215587341        2.22481058446919       -4.61900335108535
H           -2.20202912198538        1.44553645599149       -2.53859040558163
H           -1.92635162732682       -1.22012370402273       -2.66055042691239
H           -3.66366912402933       -2.84511784340621       -3.27320294213230
H           -5.23233498293644       -3.67612656914003       -1.54297919517415
H           -5.02453152639185       -2.89535882893299        0.76789507436442
H           -2.30478109295750       -0.60493932332829        1.91453186597127
H           -4.21363763946714       -2.79258166422712        2.86920886986706
H           -2.53380552042179       -3.10015309769313        2.42097237958036
H           -2.91357319514417       -2.01882611111865        3.76703098622866
H           -5.36100306584490       -0.70687893746291        2.08528163204870
H           -4.30296842611959        0.07748896229180        3.26205293940082
H           -4.39447651306004        0.69070003786467        1.60995285203049
H           -3.96201312571043        0.88031404008619       -0.97245162705133
H           -5.22391858291408        2.97596106951586       -0.88673200363500
H           -4.28698157133759        4.94057415816285        0.29928796998600
H           -2.09033248670937        4.78415950044111        1.37601857493516
H            0.14543767050867        1.84133457978814        0.97501767053424
H           -1.23566553045704        2.91592488241137        3.47944837495345
H           -1.14132140101688        1.22641614026670        2.97107332455752
H            0.32533094786514        2.08598884607770        3.45887450566413
H            0.00372781754709        4.67603909813230        2.11170113450691
H            1.43612016893724        3.70453011693688        1.79142544061320
H            0.46618298878616        4.30877186003924        0.44526906238581
