  76
       -121.64885952
 C          0.0145108707       -6.8150059092       -0.0694029955
 C          1.2132359670       -6.1190336103       -0.0751195690
 C          1.2121540750       -4.7382745384       -0.0400817532
 C          0.0081726889       -4.0396180038        0.0009090194
 C          0.0053339368       -2.5773056102        0.0292424021
 N         -1.1410653118       -1.9360411701        0.0443562849
 C         -1.1951354687       -0.5728522779        0.0546293290
 C         -2.5033414323        0.0305489549        0.0464080705
 C         -2.7144946234        1.4163320372       -0.0038532380
 C         -3.9956006016        1.9427148153       -0.0355370023
 C         -4.1917441037        3.3969515014       -0.1152685272
 C         -5.1730486847        3.9493548380       -0.9382882254
 C         -5.3142337909        5.3254204225       -0.9807096120
 N         -4.5644138173        6.1521459240       -0.2741693835
 C         -3.6336031572        5.6388589977        0.5100681357
 C         -3.4052168409        4.2788036017        0.6258189576
 C         -5.1000668138        1.0913295493       -0.0031392209
 C         -4.9144038995       -0.2903841265        0.0566706829
 C         -6.0748431285       -1.1912915765        0.0929624717
 C         -6.0825672872       -2.3891372710       -0.6215974229
 C         -7.2039188696       -3.1977539869       -0.5595926943
 N         -8.2771486378       -2.8932008711        0.1476545648
 C         -8.2790005107       -1.7624359417        0.8296399871
 C         -7.2124341597       -0.8801730725        0.8372389481
 C         -3.6318622463       -0.8067797292        0.0760815511
 C          0.0022999622        0.1398804998        0.0625922862
 C          1.2013991384       -0.5701570341        0.0515416624
 C          2.5083379740        0.0357275393        0.0474062043
 C          2.7166696433        1.4222514326        0.0760360639
 C          3.9963165324        1.9533422903        0.0680277975
 C          4.1853723378        3.4100365093        0.1095945045
 C          3.3641167945        4.2683719983       -0.6218105114
 C          3.5832275841        5.6325893237       -0.5454391239
 N          4.5378113860        6.1716972438        0.1914615408
 C          5.3215600470        5.3676567702        0.8873113211
 C          5.1918875862        3.9896933611        0.8817333933
 C          5.1025962635        1.1046708805        0.0212744382
 C          4.9192713542       -0.2782363859       -0.0119299268
 C          6.0784840314       -1.1794740697       -0.0755854045
 C          6.1148291293       -2.3651013446        0.6581338725
 C          7.2294393285       -3.1793331042        0.5580988823
 N          8.2694129627       -2.8916385516       -0.2037325759
 C          8.2445025588       -1.7715477092       -0.9027503032
 C          7.1824144820       -0.8842753731       -0.8748457203
 C          3.6385668996       -0.7988318816        0.0073251904
 N          1.1500943406       -1.9330678749        0.0329274444
 C         -1.1925570239       -4.7449233913        0.0075529170
 C         -1.1873146020       -6.1257161299       -0.0274427767
 H          0.0171719902       -7.8946747770       -0.0979360050
 H          2.1491940047       -6.6572103163       -0.1079510008
 H          2.1370753487       -4.1820056186       -0.0467466298
 H         -1.8769385537        2.0943441690       -0.0544794881
 H         -5.7996769337        3.3163945258       -1.5476077119
 H         -6.0607307263        5.7913341840       -1.6105231091
 H         -3.0467481529        6.3541054964        1.0715212855
 H         -2.6433829462        3.9075888021        1.2942699487
 H         -6.0975102584        1.5027019612       -0.0267425907
 H         -5.2366543698       -2.6726742457       -1.2284827838
 H         -7.2500552028       -4.1323051401       -1.1031771698
 H         -9.1779218779       -1.5569483344        1.3959847160
 H         -7.2562434636        0.0236360790        1.4252662380
 H         -3.4708903567       -1.8716238880        0.1406480432
 H          0.0007160736        1.2159814780        0.0755506620
 H          1.8781256209        2.0983000748        0.1339379063
 H          2.5831848901        3.8755391688       -1.2549706414
 H          2.9687700973        6.3292423833       -1.1007281041
 H          6.0876474001        5.8544313412        1.4762595984
 H          5.8466171834        3.3771252607        1.4822865630
 H          6.0991194842        1.5187049226        0.0098780359
 H          5.2960235773       -2.6355948666        1.3067590429
 H          7.2967904315       -4.1057352409        1.1134131628
 H          9.1165732409       -1.5799734367       -1.5141460419
 H          7.2027223567        0.0108540512       -1.4772766026
 H          3.4801875375       -1.8650881130       -0.0374350651
 H         -2.1199352009       -4.1937159235        0.0408036377
 H         -2.1208116522       -6.6691145425       -0.0226919047
