70
 energy: -136.017368266205 gnorm: 0.000044897847 xtb: 6.7.1 (edcfbbe)
N          -10.29765767902727        2.36174710924485        2.11515762341075
C           -9.36638875049250        1.78388948487201        1.77790571905870
C           -8.21871627559355        1.06612233856933        1.36835784145508
C           -7.89556196952592       -0.15350526550414        1.97128076655184
C           -6.76340528195147       -0.82977719093426        1.57822228180905
C           -5.92100395717902       -0.32488056362811        0.58094215336473
N           -4.76887066325334       -1.03229619397958        0.25691205118801
C           -4.73502891185679       -2.35789461832319       -0.15522358888829
C           -5.78418280404781       -3.23321961115891       -0.38580838328022
C           -5.47268593453497       -4.50399944075718       -0.83529901772160
C           -4.15442434934809       -4.89140185587186       -1.06114624286433
C           -3.10828997420933       -4.01361230060738       -0.85048798535317
C           -3.39626520175017       -2.73382913875202       -0.39535064944190
C           -2.58291968756639       -1.58860659739939       -0.08180973559608
C           -1.21493320297945       -1.36778047397681       -0.08113785508748
C           -0.72643697066558       -0.13153595113153        0.32613582643292
C            0.72121140788749        0.13376464561844        0.32577245426350
C            1.61492263111147       -0.85332102488705        0.76098840422651
C            2.98104388621321       -0.65238834387503        0.77288749474992
C            3.46033394790094        0.56425477628499        0.31551021340948
C            2.57809712276535        1.58778599166930       -0.09113229094364
C            1.21009214552544        1.36704106586484       -0.08995574869331
C            3.39185888238710        2.73064284427447       -0.41217108016118
C            3.10446792861471        4.00709540254897       -0.87693246417735
C            4.15090788371272        4.88314583338293       -1.09325183740582
C            5.46892672027749        4.49725659509845       -0.86343771543683
C            5.77985888607159        3.22977304651073       -0.40434940449896
C            4.73040263387038        2.35625093012316       -0.16837469449438
N            4.76373428408921        1.03358973708645        0.25311486343804
C            5.91560551604517        0.32748912131497        0.58099951264781
C            6.75844211843600        0.83739941010841        1.57531192622304
C            7.89031700543124        0.16265162648161        1.97183456433678
C            8.21266039070118       -1.06042613418398        1.37552912661055
C            9.36015395023134       -1.77643429402691        1.78866060412908
N           10.29102844249113       -2.35310407565463        2.12904641641056
C            7.40758358071693       -1.56855833776869        0.35983307694883
C            6.27675274313585       -0.87511447012000       -0.04946170814623
C            5.52915359474145       -1.45208198012744       -1.22171840770427
F            6.38115370606111       -1.97656177495714       -2.12726514499000
F            4.70886888131772       -2.46843206841114       -0.88135514962684
F            4.78275361344766       -0.57328084644801       -1.90063948783671
C           -1.62056502089467        0.85861229708815        0.75346229338126
C           -2.98668591505876        0.65763603138900        0.76583092798667
C           -3.46557124924467       -0.56231041064462        0.31689502498182
C           -6.28296230581199        0.87403743355707       -0.05601986089122
C           -5.53609866660736        1.44537256651628       -1.23149168110057
F           -6.38890866935143        1.96265320272280       -2.14043588412055
F           -4.71812142753732        2.46550461130747       -0.89686824357450
F           -4.78756205527161        0.56420715843697       -1.90490710772885
C           -7.41412355507704        1.56906399308091        0.34970856141349
H           -8.52666221395379       -0.54920920796341        2.75221453917241
H           -6.49158456030883       -1.75854643291136        2.05570071060324
H           -6.81053814295117       -2.93788033253161       -0.22839838199340
H           -6.27050927289493       -5.20811448730381       -1.01882001227336
H           -3.95150134714657       -5.89191482965560       -1.41296762302277
H           -2.08782923971300       -4.30984507969970       -1.03949617361268
H           -0.53928713362531       -2.14340680597393       -0.40734442301333
H            1.22282972349950       -1.79145194621605        1.12350968946914
H            3.64376845707339       -1.42265286132188        1.13803334575895
H            0.53475006095072        2.14028366040106       -0.42239133778763
H            2.08421406110734        4.30207130148698       -1.06900374345975
H            3.94842876884809        5.88096817482611       -1.45287580817294
H            6.26699629223932        5.19990281293131       -1.05145299567575
H            6.80603927676075        2.93542645568181       -0.24396028507194
H            6.48722323974359        1.76891434996082        2.04773766046096
H            8.52183183743795        0.56226186137047        2.75043879087862
H            7.67410943043457       -2.49581365688762       -0.12563170203315
H           -1.22883277367253        1.79939961994583        1.10943837835393
H           -3.64969025743817        1.43050023272278        1.12491491706992
H           -7.68121221103862        2.49350561244249       -0.14078658965404
