  138
       -216.41981338
 O        -10.6971504991       -0.3955465789        0.6093377338
 P         -9.3540592858        0.0033100494        0.1615272978
 C         -9.2939613460        0.4081718494       -1.6124972105
 C         -8.1019044575        0.5756649086       -2.3038828614
 C         -8.1302216477        0.8441222570       -3.6601336980
 C         -9.3414244734        0.9534712391       -4.3252202929
 C        -10.5315437356        0.7881313873       -3.6349810520
 C        -10.5069010403        0.5090199477       -2.2803422379
 C         -8.7581736618        1.4715711389        1.0588610884
 C         -9.2799110534        2.7023603345        0.6873193929
 C         -8.9497104404        3.8384265504        1.4038963304
 C         -8.1097512266        3.7385127781        2.5017518006
 C         -7.6135961687        2.5049588319        2.8901697970
 C         -7.9368664008        1.3685564473        2.1698983983
 C         -8.1195639167       -1.3118912808        0.3821451485
 C         -8.6287999513       -2.5971167760        0.5510653612
 C         -7.8059590577       -3.7105535374        0.6565123187
 C         -6.4327612577       -3.5817874086        0.5864592461
 C         -5.8977957979       -2.3070108154        0.4247229921
 C         -6.7394498792       -1.1801643327        0.3300938846
 O         -6.0186344737       -0.0320188159        0.1943149138
 C         -4.7097586992       -0.3974017293        0.1908826348
 C         -3.5971285088        0.4226578382        0.0755970315
 P         -3.5763392033        2.2380452287       -0.0117337700
 O         -2.2337405558        2.7453415825       -0.3396310310
 C         -4.1278687694        2.8225620885        1.6263035896
 C         -4.4976971832        4.1542165995        1.7534330435
 C         -4.7564866480        4.6839216665        3.0039333828
 C         -4.6360271794        3.8857253680        4.1307667127
 C         -4.2625409853        2.5574790453        4.0047868023
 C         -4.0058334913        2.0246347856        2.7529063812
 C         -4.8355809499        2.7793121849       -1.2065540131
 C         -6.1589571585        3.0067135097       -0.8589143869
 C         -7.0384620139        3.4905847112       -1.8108986407
 C         -6.6055423914        3.7348103934       -3.1042500257
 C         -5.2860717928        3.4941918513       -3.4539323508
 C         -4.4004327851        3.0209163672       -2.5031230339
 C         -2.3501032472       -0.1916026411        0.0681751263
 C         -2.1836461290       -1.5740795209        0.1826351874
 C         -0.8350556651       -2.1572300113        0.1626081424
 C          0.1538291976       -1.6362160099       -0.6693474996
 C          1.4208064873       -2.1829027100       -0.6874266041
 C          1.7419404573       -3.2613144495        0.1298775034
 C          3.1174484367       -3.8832318545        0.0585384014
 C          4.2244356278       -2.8693362522       -0.0559631700
 C          4.1466659921       -1.6363839662        0.6140364360
 C          5.1804692360       -0.7463233410        0.5884994532
 C          6.3981100490       -1.0176161879       -0.1129442305
 C          7.4718368175       -0.1039233553       -0.1414805582
 C          7.5194281170        1.0552123012        0.7083293432
 C          8.5483354557        1.9397717146        0.6737978094
 C          9.6529182150        1.7446733693       -0.1944126627
 N         10.7017014659        2.6366893676       -0.2204460582
 C         10.5924134380        4.0180041373       -0.2026325844
 C          9.4565132533        4.8146097563       -0.2405540481
 C          9.6275439879        6.1875687032       -0.2534343590
 C         10.8983175650        6.7598308083       -0.2432095547
 C         12.0354043390        5.9721007078       -0.2473339800
 C         11.8882917625        4.5928632114       -0.2369505657
 C         12.8193602809        3.5006194097       -0.2799842486
 C         14.2043040254        3.4294488194       -0.3062103562
 C         14.8038821816        2.1830187446       -0.3017547530
 C         14.0401226605        1.0185331928       -0.2472704666
 C         12.6574952860        1.0649538551       -0.2221967692
 C         12.0476413602        2.3107923361       -0.2679448090
 C          9.6400559688        0.6031837179       -1.0361607152
 C          8.5982882740       -0.2667372688       -1.0206705026
 C          6.4558984622       -2.2865328185       -0.7723332553
 C          5.4175011773       -3.1712395503       -0.7321806914
 C          3.1291766329       -4.9089689646       -1.0590547313
 C          2.8608644246       -4.7235014434       -2.3976861691
 C          2.9254042428       -5.8201661481       -3.2475067665
 C          3.2496493417       -7.0778163982       -2.7615487276
 C          3.5169472917       -7.2709243070       -1.4159402301
 C          3.4554457762       -6.1801370504       -0.5636760268
 C          3.6843646868       -6.0750031017        0.8670204595
 C          4.0480356387       -7.0297953794        1.8028424397
 C          4.1960282901       -6.6425043575        3.1243599881
 C          3.9865215014       -5.3247622837        3.5065126862
 C          3.6279654240       -4.3622980824        2.5737000243
 C          3.4706449217       -4.7443307453        1.2577707657
 C          0.7565229663       -3.7901249362        0.9524121784
 C         -0.5123237199       -3.2442427513        0.9707947612
 C         -3.3048514717       -2.3835409403        0.3188149268
 C         -4.5626646056       -1.7935977812        0.3204413939
 H         -7.1612637299        0.5057318072       -1.7837293975
 H         -7.2026515947        0.9710814350       -4.1994245773
 H         -9.3569759509        1.1647675340       -5.3844150457
 H        -11.4755256271        0.8715150048       -4.1532888950
 H        -11.4191833423        0.3600159933       -1.7204609053
 H         -9.9495074462        2.7511984234       -0.1614076551
 H         -9.3485183856        4.7994090041        1.1130104258
 H         -7.8492957839        4.6222180341        3.0648464814
 H         -6.9730541887        2.4305364163        3.7553722846
 H         -7.5592183228        0.4021052909        2.4706565924
 H         -9.7020722518       -2.7011053843        0.6057475298
 H         -8.2487010284       -4.6859764802        0.7893716596
 H         -5.7831984193       -4.4402804162        0.6569869031
 H         -4.5708544020        4.7670043713        0.8650513573
 H         -5.0404817225        5.7214593759        3.1031069074
 H         -4.8291113753        4.3007740595        5.1092872590
 H         -4.1636940608        1.9373390015        4.8844384239
 H         -3.7029499524        0.9921733877        2.6470016816
 H         -6.4921782501        2.8112123781        0.1480215153
 H         -8.0660032273        3.6799739353       -1.5412408582
 H         -7.2987710425        4.1150129895       -3.8402467963
 H         -4.9478685173        3.6845879280       -4.4621873678
 H         -3.3601624189        2.8506833117       -2.7421317346
 H         -1.4876366644        0.4516592745       -0.0133298997
 H         -0.0798260712       -0.8062838476       -1.3189436957
 H          2.1754630055       -1.7623344335       -1.3356196515
 H          3.2420818268       -1.3863075269        1.1493229290
 H          5.0571193018        0.1965820681        1.0961960631
 H          6.7373238404        1.2078332521        1.4337120481
 H          8.5758755860        2.7685443694        1.3661268325
 H          8.4684056113        4.3828236292       -0.2804479400
 H          8.7582954820        6.8267962720       -0.2802568750
 H         10.9923112040        7.8351637590       -0.2493859746
 H         13.0183866844        6.4173118996       -0.2669817736
 H         14.7981458969        4.3305139102       -0.3214433706
 H         15.8804081457        2.1071543579       -0.3238686209
 H         14.5362086590        0.0605910984       -0.2152614402
 H         12.0776665360        0.1579374867       -0.1479817229
 H         10.4419229935        0.4782346842       -1.7490654525
 H          8.5980712375       -1.0781618915       -1.7296653177
 H          7.3540182701       -2.5745283868       -1.2941933745
 H          5.5096448720       -4.1243864936       -1.2327529560
 H          2.6058647189       -3.7472898381       -2.7822332911
 H          2.7194376761       -5.6907906934       -4.2997772023
 H          3.2937602711       -7.9161993345       -3.4411972082
 H          3.7687885423       -8.2513235693       -1.0398001200
 H          4.2142765088       -8.0551501753        1.5077038153
 H          4.4794953547       -7.3732095632        3.8674720211
 H          4.1054396372       -5.0441678592        4.5426358281
 H          3.4701434534       -3.3371256825        2.8744521439
 H          0.9848315013       -4.6320824236        1.5889915321
 H         -1.2566507297       -3.6544077467        1.6374751490
 H         -3.2102882876       -3.4549672402        0.3956880609
