138
 energy: -216.506123474227 gnorm: 0.000043648633 xtb: 6.7.1 (edcfbbe)
O          -10.67872556769177       -0.43588115419923        0.57800615240608
P           -9.34856221146171       -0.01606623137263        0.09185676459572
C           -9.36350625744605        0.41812442720242       -1.67412240121987
C           -8.19596339494915        0.66075607546598       -2.38663225370861
C           -8.26525412104276        0.93995616568461       -3.73891628459574
C           -9.49410200186096        0.98150251133426       -4.38021619224026
C          -10.65933909677955        0.73743577416179       -3.67062532429195
C          -10.59337579248246        0.45062635238883       -2.31879571415987
C           -8.75747190299348        1.43986452797114        1.01051627657796
C           -9.26419184858875        2.68070593082607        0.64970625400898
C           -8.94712986097251        3.80060752455373        1.39754124171199
C           -8.13455332730813        3.67518304907125        2.51329841512636
C           -7.65064797626159        2.43237669613967        2.88816472864039
C           -7.96350323139681        1.31110281030653        2.13946049904945
C           -8.11271252098480       -1.33644363145111        0.24540449983353
C           -8.62477357009268       -2.63201759267218        0.35353768288799
C           -7.80266559523785       -3.74871074757508        0.40618937326032
C           -6.42901710687891       -3.61867876557988        0.34710555099454
C           -5.89120275288803       -2.33565165250586        0.24537368544379
C           -6.73269490841331       -1.20630999806624        0.19387623255754
O           -6.00734792107449       -0.05016349230807        0.10762692933812
C           -4.69401340613764       -0.42129339515127        0.10349322059107
C           -3.57776845875586        0.39965677925650        0.04280726884569
P           -3.54458320156218        2.21568333206526        0.02004403848618
O           -2.18543409568066        2.71806983819195       -0.27121216511329
C           -4.09525745591313        2.77683693068767        1.66565529361804
C           -4.43949827358575        4.11358214196361        1.81569400162757
C           -4.69757618176995        4.62343502883802        3.07484968005640
C           -4.60140680844498        3.80097026321929        4.18664811398160
C           -4.24950532984859        2.46914308899459        4.03825636542721
C           -3.99201560899840        1.95578671667186        2.77814509080839
C           -4.75906451593963        2.81808749408136       -1.18966261958882
C           -6.09455930117091        3.02979923221573       -0.87819379903120
C           -6.94141577251538        3.55820009470419       -1.83628259437551
C           -6.46343358761844        3.86255399881198       -3.10088689025669
C           -5.13221519892103        3.63766714221481       -3.41585221796170
C           -4.27943549804859        3.11948254843708       -2.45847386880610
C           -2.32944672548703       -0.22227195440595        0.03526839487745
C           -2.17079733070720       -1.60824351332384        0.10233490484401
C           -0.82165775186406       -2.19464447723126        0.10709753731203
C            0.18640845951864       -1.67680108076993       -0.70320868703968
C            1.45560880339625       -2.22005474366593       -0.68542057357939
C            1.76096034183935       -3.29002136791661        0.14955545344259
C            3.14319836575671       -3.90617068695898        0.12469644169926
C            4.24862359649310       -2.88728669362416        0.00950939213311
C            4.15748125877168       -1.64778700796534        0.66467288586551
C            5.18533904705616       -0.74849250051115        0.63355430945526
C            6.40238595718354       -1.01783841862815       -0.06242207619207
C            7.46978571727551       -0.08863821951057       -0.10362998676221
C            7.54154778480935        1.03460068835695        0.78582141041281
C            8.56105100528220        1.93217991967008        0.73958391151481
C            9.62367526086759        1.78454443692672       -0.18736687005559
N           10.66160514689219        2.68911578236842       -0.22772133232614
C           10.54195221637577        4.06731150939594       -0.13922247312595
C            9.39958331225976        4.85435115355580       -0.07872828344185
C            9.56004807884973        6.22839535455260       -0.03080625780096
C           10.82519639128302        6.81209827346075       -0.05878525061902
C           11.96680073198369        6.03589197784571       -0.16290018627435
C           11.82971727182188        4.65682616035406       -0.21388978393442
C           12.76690302283069        3.57656039718679       -0.35651351195827
C           14.14906197531522        3.52214500566771       -0.45692833655342
C           14.75940333343036        2.28235265968430       -0.53992073746554
C           14.00947648066603        1.10846335213886       -0.49829306606869
C           12.62898510144947        1.13900473155059       -0.40017193376311
C           12.00641030571324        2.37943533503162       -0.35942568157496
C            9.58276661630710        0.67685354691806       -1.07139746755091
C            8.55186714700476       -0.20823659364615       -1.03786841223598
C            6.47736129004454       -2.29000738851587       -0.70591362742164
C            5.44675485827133       -3.18616209488154       -0.65765228491463
C            3.18382038244011       -4.96006341705133       -0.96741362924653
C            2.93422052407471       -4.81154603703463       -2.31484012199869
C            3.01974286968481       -5.92925408884623       -3.13522234475129
C            3.34702431571409       -7.17156923206651       -2.61237053141969
C            3.59352217205253       -7.32804678469290       -1.25779442323041
C            3.50926598171491       -6.21635353264248       -0.43423968400805
C            3.70361745358871       -6.07569786238610        0.99903197060859
C            4.04432444315656       -7.00791078996230        1.96638872136131
C            4.14863672616585       -6.59175460073542        3.28369859592040
C            3.91995099251794       -5.26720795938301        3.63027301508110
C            3.58588302624272       -4.32694665867490        2.66565403512011
C            3.47100345122476       -4.73775570217201        1.35366708764278
C            0.75362251216420       -3.81924015771772        0.94598956779786
C           -0.51780753400484       -3.27865704539026        0.92690861748260
C           -3.29718068150623       -2.41783488329012        0.18036946731399
C           -4.55570620872521       -1.82228749620617        0.17815874049983
H           -7.24373029031656        0.63758169326669       -1.87948137407662
H           -7.35717006910273        1.12805341943408       -4.29238997909974
H           -9.54256218930267        1.20068802848299       -5.43669606716804
H          -11.61677468966659        0.76669088615854       -4.16998646343079
H          -11.48497540517894        0.24576120244045       -1.74195978712495
H           -9.91012297481208        2.75001016301742       -0.21655492544978
H           -9.33454313855382        4.76836589981006        1.11417397108680
H           -7.88437561891550        4.54621352947077        3.09970322011685
H           -7.02896766792019        2.33701391865206        3.76529039532673
H           -7.59925637203297        0.33447880662110        2.42936236475017
H           -9.69878822248734       -2.73759376737275        0.40651301187692
H           -8.24799528271079       -4.72857167295134        0.49192388815129
H           -5.78048705397439       -4.47957304943650        0.38249284476243
H           -4.49362716015031        4.74510310360713        0.93824246920079
H           -4.96404653105739        5.66371675619711        3.19094265689685
H           -4.79710820949742        4.20001920572925        5.17121635460437
H           -4.16846530069528        1.82925807714344        4.90536389346554
H           -3.70653023829855        0.91948852718099        2.65364376919741
H           -6.46052177173744        2.78631078869499        0.10826846701126
H           -7.97821228526602        3.73251099444223       -1.59287407991920
H           -7.13079400936954        4.27751956584127       -3.84171322062252
H           -4.75856535042740        3.87330694731329       -4.40175821390979
H           -3.23084383900878        2.95736428474169       -2.66855547847509
H           -1.46191475485509        0.42067108866793       -0.00051510164940
H           -0.03255970556281       -0.85018729460664       -1.36330606440799
H            2.22315405800795       -1.80030560525139       -1.31993053922073
H            3.24801019829648       -1.39721384063164        1.19232136568575
H            5.05137225443275        0.20183908393621        1.12530221125528
H            6.79366763324263        1.14492314333173        1.55404962290484
H            8.61305479283589        2.73137898575814        1.46402262594912
H            8.41322762336414        4.41792099930469       -0.08779674877964
H            8.68596364782989        6.85990083902193        0.02090777929630
H           10.91158238963724        7.88755215924499       -0.01547741647923
H           12.94356702184144        6.49225600397844       -0.21218447739954
H           14.73461205460034        4.42873696619262       -0.46172168326350
H           15.83437698942443        2.22021219407145       -0.62095238981667
H           14.51485125629769        0.15516373331627       -0.53513374473169
H           12.06326625327593        0.22277461893056       -0.33750140503092
H           10.34825252219607        0.58885726841480       -1.82797695562148
H            8.52278359698215       -0.99240468207094       -1.77672372869058
H            7.38283568949518       -2.57549586225934       -1.21698147607932
H            5.55259928262327       -4.14541169339401       -1.14421488574428
H            2.67709587595769       -3.84803309745940       -2.72895205355624
H            2.82787364544208       -5.82845691101523       -4.19364839459009
H            3.40830079490341       -8.02716926900839       -3.26957018813521
H            3.84516326040962       -8.29715357312441       -0.85298775786608
H            4.22435407686466       -8.03876500358009        1.69934245914030
H            4.41218842718211       -7.30502824254543        4.05134112564212
H            4.00354557372650       -4.96364141387229        4.66375933520303
H            3.41112457064408       -3.29751969156413        2.94115721631514
H            0.96606998724373       -4.65705310789954        1.59410137610879
H           -1.27917635878297       -3.68857692241408        1.57429695850323
H           -3.20783238663090       -3.49176661396794        0.21955448024864
