138
 energy: -216.607010929303 gnorm: 0.000055967637 xtb: 6.7.1 (edcfbbe)
O          -10.64738435788728       -0.37582796445244        0.53612491543042
P           -9.31289487125378        0.07728797309309        0.09782600672985
C           -9.30242033298759        0.65748883797979       -1.62484982432782
C           -8.12620328617159        0.97931676746916       -2.28952140115066
C           -8.17710472682275        1.38281263653540       -3.61112202215069
C           -9.39583285473272        1.46977784642414       -4.26674051387046
C          -10.56962492946372        1.14878771210418       -3.60350884394951
C          -10.52229227929923        0.73724186702286       -2.28323523455138
C           -8.70621917114435        1.43414572790825        1.14687552736494
C           -9.19582565080644        2.70869806870509        0.89584193443337
C           -8.87087357977900        3.75265223812455        1.74356103805263
C           -8.06672800816647        3.51775830819593        2.84776044627901
C           -7.59790341960589        2.24089611914640        3.11079490558993
C           -7.91946329083330        1.19503024628359        2.26306808219915
C           -8.08949573446575       -1.27125158807439        0.14052589022826
C           -8.61807251482648       -2.55730821421589        0.13290437656419
C           -7.81507600140844       -3.69018977236192        0.09563425926936
C           -6.43912339948079       -3.57467158389837        0.05994566506550
C           -5.88513930214588       -2.30115067373237        0.07456777085912
C           -6.70562616698779       -1.15676422903827        0.11477971235805
O           -5.96368058584599       -0.01112456309430        0.13904974172166
C           -4.65734856985196       -0.39967035265749        0.11765632423903
C           -3.52634476317898        0.40583013100774        0.14474826992854
P           -3.45951147508093        2.22138058077188        0.29224247810043
O           -2.08684788702535        2.71457657395056        0.06063070479784
C           -4.01918044901956        2.62652716240673        1.97888200725471
C           -4.36293543778152        3.94446461352099        2.24905168008200
C           -4.62691313280729        4.33684298741319        3.54849843981366
C           -4.53853555960076        3.41522781173310        4.58029128794410
C           -4.18745824049427        2.10199184355966        4.31203533471279
C           -3.92241535668595        1.70628144379561        3.01170294875547
C           -4.64890661346928        2.95360289407201       -0.86920579805538
C           -5.98546659767200        3.15369514433960       -0.55488012772937
C           -6.81045816194229        3.78994068920198       -1.46557292000802
C           -6.30949539304688        4.21194216038901       -2.68684895399650
C           -4.97718634801408        3.99978818742081       -3.00528417626460
C           -4.14557493226621        3.37485525416371       -2.09380118558863
C           -2.29348561006679       -0.23071727954311        0.09870498502405
C           -2.15185671280629       -1.62028711806562        0.04306364537823
C           -0.81093392145514       -2.22356006079471        0.01024245759042
C            0.21051340954451       -1.64952143802327       -0.74335050067396
C            1.47219277402029       -2.20971478701466       -0.76400803925790
C            1.75757232172525       -3.35166113022371       -0.02239798614617
C            3.13149262207057       -3.98564603561313       -0.09294556036387
C            4.24633868327537       -2.95913730970323       -0.14918172839473
C            4.17444967754220       -1.80412336640186        0.62256076833755
C            5.20668168261804       -0.88713207901801        0.62077516244018
C            6.35156237085783       -1.10238670661451       -0.14351205718033
C            7.44741339533623       -0.12255678135696       -0.15211073490823
C            7.17916851041789        1.24471726176524       -0.19276859787280
C            8.20425738874514        2.16953094783437       -0.20284383330846
C            9.52930812928246        1.74413702140129       -0.17671575064631
N           10.57530610618497        2.68072683099753       -0.18966482461332
C           10.72969113078639        3.70764980531028       -1.09890739080498
C            9.95355081792992        4.03613599225401       -2.20195168878809
C           10.34894679239226        5.11310872686949       -2.97210581441567
C           11.49351944746192        5.84669353419659       -2.66473464289352
C           12.28173386716659        5.51153087557720       -1.58176729509654
C           11.90492106586125        4.43264291402741       -0.79175736351372
C           12.47833832443327        3.80693535828711        0.36695019967976
C           13.60578704020042        4.06706726604704        1.13593459742360
C           13.86359486405154        3.26117680892720        2.22706847097030
C           13.00647466653398        2.21488174923609        2.56364479398931
C           11.87932187207331        1.93605545816331        1.81452099631165
C           11.62706282852825        2.72825357182758        0.70283356182724
C            9.80824176925465        0.38091685629850       -0.13751228601466
C            8.77765446957830       -0.53769642586370       -0.12323140184165
C            6.42837128296969       -2.26899060660151       -0.90008503261536
C            5.39251553388931       -3.18373421362689       -0.90116527329574
C            3.13940395831726       -4.94981889694169       -1.26545173275566
C            2.89253698117354       -4.68910640458760       -2.59665998046922
C            2.94151238773537       -5.74096460455994       -3.50225930001459
C            3.22930708899609       -7.03006232756701       -3.07928918510656
C            3.47018019428740       -7.29960115419566       -1.74140993124282
C            3.42073513209824       -6.25397878684077       -0.83368146010610
C            3.61449648043036       -6.23369674237760        0.60761183487629
C            3.91727668442212       -7.25206613834909        1.49703319305168
C            4.03577517188140       -6.94505389665154        2.84327619251282
C            3.85913675497418       -5.64479527012622        3.29217336100097
C            3.55915750153156       -4.61987564633158        2.40432536037857
C            3.43228724549048       -4.92057595978545        1.06462530889058
C            0.73603581880392       -3.93529152985089        0.71629236399803
C           -0.52897696335408       -3.37948624065332        0.73370091092565
C           -3.29218850215447       -2.41451838795542        0.03389904876807
C           -4.53584674707577       -1.80239179330463        0.06837480176039
H           -7.18260163857008        0.92255357769705       -1.76927326940716
H           -7.26296554652845        1.63212687985152       -4.12912916156424
H           -9.43016162300225        1.78589696653419       -5.29892012952953
H          -11.51893764360615        1.21510322457496       -4.11441816677709
H          -11.42083904545006        0.47161047564322       -1.74326908273688
H           -9.83509926676019        2.86461546247980        0.03599747489266
H           -9.24667596042477        4.74617688951826        1.54762500878465
H           -7.81146698066292        4.32934685273578        3.51197041775669
H           -6.98198490909346        2.05986422666482        3.97840121255589
H           -7.56703094697085        0.19314201968866        2.46742452335203
H           -9.69433283678024       -2.65107963641152        0.16626416249711
H           -8.27596246402647       -4.66600208290845        0.09256262490515
H           -5.80411218710668       -4.44579945802138        0.02604690445176
H           -4.41263743332695        4.65456651384383        1.43376824101207
H           -4.89115617372289        5.36284280631323        3.75820734751830
H           -4.73874767498132        3.72232061917220        5.59637744478909
H           -4.11189834146112        1.38550216054473        5.11735577454418
H           -3.63492647935311        0.68586122620780        2.79606233820950
H           -6.36936233725257        2.81849250563930        0.39716708851256
H           -7.84786890668802        3.95608852209972       -1.21933652520407
H           -6.95967776173873        4.70990008719100       -3.39086621440259
H           -4.58574624795117        4.32761854911261       -3.95727369238409
H           -3.09631649104730        3.22041076296636       -2.30557702847334
H           -1.41532209050751        0.39860164008836        0.12926917437587
H            0.00885700386185       -0.76601655303030       -1.33126503944158
H            2.24892026907458       -1.74634778600353       -1.35485917842750
H            3.29664442185404       -1.61399078703815        1.22323198956915
H            5.13308570811162       -0.00191677062234        1.23583746823793
H            6.15522133358674        1.58647420016672       -0.22872877192544
H            7.98438639978616        3.22683945732329       -0.22136689334211
H            9.07365294368466        3.46491040277594       -2.45711753660813
H            9.75937849239011        5.39072646859114       -3.83404336104843
H           11.76835437132605        6.68342388066324       -3.29032388356968
H           13.17635808298012        6.07144407181677       -1.35262608754194
H           14.26245246293310        4.88677234579101        0.88454693296632
H           14.73643180019924        3.44558918289294        2.83634372453736
H           13.22643260406394        1.61103552301120        3.43222822669033
H           11.21260291645441        1.13343675940422        2.09219837205645
H           10.83577789338073        0.04819496836882       -0.12849370295083
H            9.00638669210517       -1.59226477905976       -0.07795777415390
H            7.30004103717694       -2.45339207411515       -1.51106595060809
H            5.47594160837314       -4.07995850199804       -1.49866189382179
H            2.66811224570226       -3.68795491404646       -2.93348520721384
H            2.75309849778138       -5.55175147755440       -4.54919843976822
H            3.26369306968305       -7.83330683169842       -3.80134285426212
H            3.69040456432958       -8.30498232812577       -1.41411775719288
H            4.05749316696337       -8.26510975993058        1.14993658814058
H            4.26988665799564       -7.72681253260116        3.55163634586702
H            3.95669105931493       -5.42547607832857        4.34564340604304
H            3.42367873392093       -3.60987530362413        2.76164878261979
H            0.93194741921823       -4.82948436078766        1.28975803963276
H           -1.30039902825670       -3.83588770371843        1.33642162096840
H           -3.21718205710892       -3.48905239455076       -0.01925875664819
