138
 energy: -216.505758148369 gnorm: 0.000027176268 xtb: 6.7.1 (edcfbbe)
O          -10.65890986381839       -0.34458373374239        0.49180908993450
P           -9.31515681114168        0.09243520871315        0.06136580817670
C           -9.30179639465729        0.69854563874726       -1.65311172142412
C           -8.12282297750866        1.01264833667175       -2.31724827071249
C           -8.16981679883649        1.42804936376678       -3.63502055194784
C           -9.38774632725689        1.53345132553494       -4.28981404875218
C          -10.56430128932316        1.21819131755632       -3.62859294059215
C          -10.52064204581368        0.79517537210928       -2.31208864033131
C           -8.70649289961138        1.43917885399992        1.12450554158442
C           -9.20205454430581        2.71514194283504        0.89348934734790
C           -8.87707233485072        3.74906812833253        1.75329974089192
C           -8.06646181360538        3.50280624968147        2.85023826901274
C           -7.59139044033097        2.22445902347405        3.09364952056051
C           -7.91348293934018        1.18887181550904        2.23354371096848
C           -8.10888493514417       -1.26319213991967        0.09643825190296
C           -8.64861925200475       -2.55207225326918        0.08284705577403
C           -7.85019474132454       -3.68602504719953        0.03475076438936
C           -6.47374108021940       -3.58073092247319       -0.00611606549000
C           -5.90835388214505       -2.30550915793793        0.01351334717222
C           -6.72614361295505       -1.15888843677818        0.06267444381720
O           -5.97679311570214       -0.01529948291159        0.08952326932064
C           -4.67142025199118       -0.41183979247107        0.06050892481016
C           -3.53892547916049        0.38829454819526        0.08796150721836
P           -3.46646311024154        2.19590380392275        0.25453959405897
O           -2.09422075789253        2.69476543867932        0.02505045425878
C           -4.01574517864365        2.59153203419163        1.94859601085346
C           -4.35590466705438        3.90664616126622        2.23590842658624
C           -4.61083815990104        4.28507400034275        3.54128639193960
C           -4.51708434558924        3.35229401557510        4.56245944185151
C           -4.16978343333977        2.04162366568322        4.27742849327477
C           -3.91413100829307        1.66033610779341        2.97098341701078
C           -4.65820612393377        2.95665092865151       -0.88663277607937
C           -5.99239348213457        3.15836634247067       -0.56285872825216
C           -6.81926979064877        3.81201821434545       -1.45926126925807
C           -6.32302872159142        4.25094728917445       -2.67639340715070
C           -4.99321927665668        4.03747354725817       -3.00491736450378
C           -4.16038948514430        3.39391634408661       -2.10797279541919
C           -2.30314667326429       -0.25621559789902        0.03323531448734
C           -2.17347677152750       -1.64541938435823       -0.02518686091362
C           -0.83439614590793       -2.25420001960964       -0.05128600426188
C            0.18722351999203       -1.70007690086420       -0.81913540856125
C            1.45010447034877       -2.25800428368583       -0.82121691008368
C            1.73603830711124       -3.37644948792250       -0.04481772704239
C            3.11600697168594       -3.99709875284934       -0.08083949276897
C            4.22421077101047       -2.97608550126563       -0.13655950629350
C            4.12330652452508       -1.76461503234375        0.56776493110546
C            5.14094528686261       -0.85343764310040        0.56792300837624
C            6.36822993959543       -1.09336974434687       -0.12052773132331
C            7.42397135528589       -0.14886757194526       -0.12969376733733
C            7.22418748675748        1.22077059626144        0.24540155898081
C            8.22771507772198        2.13675868506781        0.20350713631473
C            9.54418850903998        1.75921861521659       -0.16286630867190
N           10.56730234189811        2.68241567134132       -0.18215662561215
C           10.49066935070611        3.96881748026331       -0.69248402682808
C            9.44618695770087        4.59442183137850       -1.36012304359654
C            9.64561392584817        5.88884721216992       -1.80804161071164
C           10.85908719184907        6.54522469310557       -1.61159383384745
C           11.91886606680153        5.91302638371266       -0.98394075428903
C           11.74220442749510        4.61513340615112       -0.52873586927628
C           12.61197103425877        3.66648424040605        0.11154443528071
C           13.92855638841978        3.72236852248239        0.54328582197081
C           14.46467525621729        2.61622641850200        1.18028155755341
C           13.69640609112988        1.47612661145422        1.40805222914294
C           12.38124539170528        1.39721957918962        0.98361929323198
C           11.84899974300833        2.48731096887902        0.30797469688009
C            9.77578106431698        0.40428213441168       -0.50933264648904
C            8.75928637835491       -0.49832599381187       -0.51853200903504
C            6.46249848775764       -2.34825864987699       -0.79449017979945
C            5.43104229947574       -3.24510268898832       -0.80038840726926
C            3.16777529885764       -5.00027102454358       -1.21926852979796
C            2.93387366732457       -4.78954662473923       -2.56116373153033
C            3.02694478832468       -5.86885441790086       -3.43078600961573
C            3.34607849380525       -7.13447139336250       -2.96152075981447
C            3.57630051150637       -7.35337337286096       -1.61274319705146
C            3.48392272007166       -6.28040066411913       -0.74020728729908
C            3.65908237748540       -6.20623208903077        0.70051152343859
C            3.98305643042185       -7.18315972383936        1.62865174631719
C            4.06921316324874       -6.82854581783211        2.96515443388545
C            3.83841812688315       -5.52081080803198        3.36919243105388
C            3.52075223046334       -4.53597591967529        2.44419869811212
C            3.42447932717219       -4.88535667350859        1.11312133765069
C            0.71351191947645       -3.94376464518637        0.70479772943029
C           -0.55295340503720       -3.39112613553088        0.70189466920703
C           -3.31554677075323       -2.43593238538113       -0.03327938226652
C           -4.56220158287428       -1.81644198876132        0.00462591996019
H           -7.17956966321010        0.93924813156369       -1.79830819826103
H           -7.25293494190135        1.67190515552665       -4.15101022441012
H           -9.41894897838627        1.85850838946247       -5.31933910236706
H          -11.51324152237890        1.29799453402802       -4.13849667597447
H          -11.42158888602735        0.53385278616116       -1.77389775984157
H           -9.84615632924496        2.87939402404950        0.03867143411157
H           -9.25766983810076        4.74369130137285        1.57224592074710
H           -7.81068986902281        4.30659249694364        3.52379294660940
H           -6.96961440050883        2.03386479575960        3.95512595150870
H           -7.55551602734119        0.18552109870364        2.42106804628312
H           -9.72490464479136       -2.63913260920316        0.12164842127238
H           -8.31647008139173       -4.65988159253787        0.02773771660164
H           -5.84380306911779       -4.45504749785082       -0.04741705623941
H           -4.41050979710910        4.62554892134806        1.42864861005544
H           -4.87294987523944        5.30899353277819        3.76376604024997
H           -4.71071617134909        3.64831552380475        5.58315542076167
H           -4.09069910113725        1.31560898930546        5.07394453707797
H           -3.63093367162043        0.64175448815403        2.74045882906023
H           -6.37312996595208        2.80963009379725        0.38569240523531
H           -7.85491211235817        3.97783476652281       -1.20497609216197
H           -6.97491461734776        4.76234877369561       -3.36914861883946
H           -4.60520752616842        4.37835964236835       -3.95380403857130
H           -3.11306592524471        3.23648348849704       -2.32752251423860
H           -1.42190337949315        0.36802543702324        0.06552321572400
H           -0.01625655587786       -0.83193371877511       -1.42911672238816
H            2.22846602445725       -1.81137378831841       -1.42326732437533
H            3.21731002815752       -1.54867321963483        1.11631748103478
H            5.02180346607417        0.04920352829654        1.14580400209563
H            6.24266788051825        1.54567130537541        0.55040450207976
H            8.04630892868439        3.15480239543988        0.51454635848418
H            8.51206162555156        4.08763191704049       -1.54490585838768
H            8.84627693877048        6.39667098654565       -2.32633390227996
H           10.97646305398885        7.55675281823481       -1.97076989931045
H           12.86627262080263        6.41428090972832       -0.85791759352867
H           14.51783681679454        4.61383975751922        0.39224326094987
H           15.48878892900455        2.64017469621211        1.52174626297159
H           14.13254322284241        0.63954654564394        1.93279158963455
H           11.78893049458804        0.52035234898346        1.19284432016164
H           10.76391009796328        0.11211495914021       -0.83221018556544
H            8.97383138898278       -1.51348261342157       -0.81053597264727
H            7.35151560373096       -2.58536936422255       -1.35656091275335
H            5.53903511793333       -4.17614218348943       -1.33844560855856
H            2.68320235474139       -3.80729256061805       -2.93332860851074
H            2.84735782980689       -5.71963522311496       -4.48565534800428
H            3.41399710658255       -7.95901428625350       -3.65664410854737
H            3.82162769126589       -8.34045648823403       -1.24965388557947
H            4.16413010470884       -8.20124956313886        1.31701147719498
H            4.31926211422769       -7.57757313485634        3.70268567201150
H            3.90738815510140       -5.26542181199551        4.41670978115251
H            3.34417602234100       -3.52001267425963        2.76482418740968
H            0.91043501076016       -4.82059589588273        1.30448028119371
H           -1.32761085642420       -3.83237444206016        1.31197055564189
H           -3.24649481924213       -3.51072414445325       -0.08836623194805
