102
 energy: -170.217652269423 gnorm: 0.000061853947 xtb: 6.7.1 (edcfbbe)
C           10.18398837633517       -3.13812912476334       -3.05278292349747
C            8.81691466462728       -3.24635960853385       -2.89915638546307
C            8.15832666531258       -2.50127373258005       -1.93276160611061
C            8.85965557495005       -1.64295531835777       -1.09526041261357
C           10.24253105585261       -1.51490914807244       -1.28256121746567
C           10.89452523414570       -2.26163662623699       -2.24604447291705
O           11.00865164490355       -0.64499129737687       -0.54749521663538
C           10.37197100215631        0.10821604980210        0.40711734291493
C           11.15670682905857        0.97142398632789        1.14881955006973
C           10.59244486086870        1.74209902767173        2.15459426280725
C            9.24368096733786        1.62734955455455        2.42275758276979
C            8.45162061752860        0.76464540869496        1.68035339374662
C            8.99504395652913        0.01012531315853        0.64816043649720
N            8.22703875910674       -0.87259621128470       -0.11597951324690
C            6.83842134891999       -0.98164055098734        0.09669501727711
C            6.28632140222479       -2.18844334952668        0.52374752652314
C            4.92805288666281       -2.29356054502044        0.73320567356126
C            4.09740144585843       -1.19286420020001        0.51956218749011
C            2.66434690403591       -1.30336579401200        0.74293966329891
N            2.18376457526203       -2.41027190346808        1.32326790659755
N            0.91583518730162       -2.62712767904144        1.25112708046287
C            0.07306792143156       -1.73120216225693        0.76404262756165
C           -1.31726354593619       -2.10676371682873        0.54998276348777
C           -1.93608608053990       -3.01772060526754        1.40550855294637
C           -3.28203941949196       -3.29260064824080        1.27777744572526
C           -4.03013795582493       -2.67020026486052        0.28175618353971
N           -5.42008302257426       -2.88087695534666        0.18364637087762
C           -5.94307556587434       -4.14024065228106       -0.11646643157027
C           -5.13350365934929       -5.24676391375886       -0.33754697965903
C           -5.68772471298109       -6.48208062772331       -0.63748831003984
C           -7.05662648801662       -6.62877802488228       -0.73042275468170
C           -7.87726040568659       -5.52624852695810       -0.54124081096087
C           -7.33025671659464       -4.29192623236799       -0.24558724313807
O           -8.20324113826174       -3.24033403979292       -0.10803144796454
C           -7.67586453277137       -2.01904112020651        0.23015066501884
C           -8.56718665810382       -0.98032505722519        0.42435866727951
C           -8.11016685420532        0.27360974570859        0.80308121904440
C           -6.76008520702041        0.47397127383045        1.00439651860479
C           -5.86096908315509       -0.56241017643445        0.80331511977748
C           -6.29912187390466       -1.81490909249324        0.39172110847039
C           -3.40016419873473       -1.81120553096905       -0.61678564984890
C           -2.05766455481594       -1.53280375429121       -0.48574431061988
C            0.57583912307680       -0.41418086334732        0.54709021794033
C           -0.28472813280995        0.75897797275412        0.45739874388814
C           -1.46596125325718        0.84665218284645        1.19710774798490
C           -2.32676897261957        1.90424298347364        1.00603547954134
C           -2.02789319801552        2.89564584110236        0.07213336939365
N           -2.95584061988257        3.92630987722133       -0.16906581612307
C           -4.21813368544981        3.61740893960594       -0.68540103662576
C           -4.56342508678490        2.33088804449102       -1.08028509223099
C           -5.82284593894720        2.05888531433165       -1.59257236015959
C           -6.75412220210085        3.06838190208916       -1.72440509172885
C           -6.41312892088149        4.36477276338225       -1.36802567120886
C           -5.15595915514497        4.64268103413527       -0.86410558034754
O           -4.87707200136509        5.95397903477568       -0.57018303134465
C           -3.61219026822633        6.24887901704956       -0.12496457022732
C           -3.33044204904783        7.57892718160068        0.12477230678403
C           -2.08659660733168        7.95192773759140        0.61253161975707
C           -1.13646961729195        6.98341825815074        0.86426650543977
C           -1.41242150408373        5.64800901905777        0.61225624639025
C           -2.64166145940937        5.26183823904347        0.09374499183048
C           -0.82301511648540        2.84217454268383       -0.62436987803010
C            0.04297804814676        1.78693613985037       -0.42603162019542
N            1.88218743405190       -0.27021355670558        0.43897177823437
C            4.65196489061580        0.01363794910038        0.09102572412476
C            6.01006217169425        0.11882429009302       -0.11786405383827
H           10.70168859164581       -3.71850003824066       -3.80000092223858
H            8.24668976991884       -3.90868890119228       -3.53220061731821
H            7.08713641635017       -2.58286947740183       -1.83564623009533
H           11.96028409252165       -2.13747075322644       -2.35282751085634
H           12.21066135170954        1.02104392654145        0.92662001509834
H           11.21215685007089        2.41467403685201        2.72625862465128
H            8.79316139658467        2.20446884353155        3.21556901926164
H            7.40249185705513        0.67148085119643        1.91311550411172
H            6.93416427299139       -3.03538534907744        0.69523125815044
H            4.48897309357019       -3.21873098468306        1.07179045554337
H           -1.35066480667881       -3.47659051691030        2.18705362277646
H           -3.76838175065395       -3.97158279009153        1.96227611190956
H           -4.06123988077014       -5.14116671455696       -0.28518276983828
H           -5.03543701461169       -7.32610391423978       -0.80064214985465
H           -7.49283780606462       -7.58821792585204       -0.95914103647266
H           -8.94942140675136       -5.60249691285121       -0.62665349695408
H           -9.61764972129507       -1.17566898284558        0.27934874758324
H           -8.81168041369471        1.07952232721837        0.94820688373666
H           -6.39380685259186        1.43946963132950        1.31684286664346
H           -4.80821652332941       -0.39603801626741        0.97062945314225
H           -3.97756684161601       -1.35926278895283       -1.40974819281575
H           -1.57452438077438       -0.87462129596886       -1.19300353606038
H           -1.69890094087759        0.09085749736860        1.93239808260202
H           -3.24441246638799        1.97065996890384        1.57150303393496
H           -3.84172932837031        1.53415854742271       -0.98948325993356
H           -6.06885244943904        1.04979694210089       -1.88405912647140
H           -7.73825402162840        2.85914073493706       -2.11206639087205
H           -7.10954306136756        5.18040002711281       -1.47931505927432
H           -4.10255889936129        8.30793692192252       -0.06214859639161
H           -1.87545436834229        8.99230691540563        0.80248107292398
H           -0.17140102156565        7.25540532314314        1.26320819280603
H           -0.66774490907420        4.89929379607234        0.83234243678585
H           -0.58502014713527        3.61788844195044       -1.33694044828760
H            0.96712221332739        1.72261595628305       -0.97964191626562
H            4.00179194723716        0.85868470362617       -0.07300712195451
H            6.44282807429124        1.04970095690029       -0.45395510893213
