102
 energy: -170.170057476543 gnorm: 0.000170819130 xtb: 6.7.1 (edcfbbe)
C           10.53673449354972       -2.33565503507861       -3.02600497047414
C            9.17281380054435       -2.53587198171413       -2.95246653126943
C            8.41804252737663       -1.88040553597208       -1.99213391474273
C            9.01830885319789       -1.02064384439053       -1.08008111884378
C           10.39815524639805       -0.79742106701091       -1.18616506210877
C           11.14648408262484       -1.45577880208223       -2.14455376267021
O           11.06615696309894        0.08241743084707       -0.37281494070453
C           10.33441031287170        0.74626511921631        0.57884277393834
C           11.02165383351738        1.62276313451043        1.39819295072756
C           10.35729771192807        2.30632986875267        2.40534204311132
C            9.00714642020927        2.09152053227220        2.59682155788480
C            8.31256684316994        1.21577694804223        1.77689015392241
C            8.95636851306916        0.54752884681370        0.74233991848053
N            8.28849334397642       -0.34231836926358       -0.10154194694595
C            6.90219345779500       -0.55967736117654        0.03769993160570
C            6.42332420237306       -1.82339273525430        0.37860359602213
C            5.06768084254944       -2.03693389738759        0.50968871845465
C            4.16841795831528       -0.99120405576397        0.30741922430651
C            2.73596505324136       -1.21489959801527        0.44836704809924
N            2.31849156194232       -2.42382622495786        0.83534821571404
N            1.04407397952325       -2.70165309795748        0.83753984580835
C            0.12406691447964       -1.79359914940651        0.61843602833437
C           -1.27976701775595       -2.19442063512172        0.52993326018984
C           -1.86142324141924       -2.98972996683503        1.51328888149835
C           -3.20841216998549       -3.29194280302008        1.46094731199253
C           -3.98966504058083       -2.81308776276223        0.41402705805949
N           -5.37953127787916       -3.05348137528477        0.38213781340909
C           -5.88604130734190       -4.34685185117258        0.25430613394600
C           -5.06131047404236       -5.46011070332805        0.14886847090296
C           -5.59969434272208       -6.73110305975175        0.02140044116828
C           -6.96821427376492       -6.90996679418762       -0.01270609199404
C           -7.80465313204418       -5.80611019716349        0.06127739768615
C           -7.27360907478624       -4.53569960224254        0.18560791311874
O           -8.16160224780063       -3.48967373647339        0.21812653727157
C           -7.64790372740304       -2.22554311479966        0.36101182675304
C           -8.55281658531779       -1.18182026093818        0.42480062489433
C           -8.10867250851845        0.11943457071048        0.60563879363146
C           -6.75717617522158        0.36567974970849        0.74050010756094
C           -5.84496686075469       -0.67529095925113        0.66816646162052
C           -6.27096834692601       -1.98112055959886        0.45554822570249
C           -3.39693509669733       -2.07061751833168       -0.60546066101092
C           -2.05522075281988       -1.76616606026873       -0.54902489655946
C            0.54670590503007       -0.45776669148612        0.37451338342682
C           -0.36070694815173        0.64874995452522        0.25208328213452
C           -1.56739509252443        0.69696348875280        0.97188856706227
C           -2.46707974244878        1.71406197533331        0.76467264565965
C           -2.19251026669092        2.72134742826773       -0.15962748668736
N           -3.17147356764142        3.70843003803274       -0.42602024190983
C           -4.37746518766779        3.33843147268159       -1.01474863867991
C           -4.61564582284858        2.04441846402143       -1.46559990305119
C           -5.83131449203412        1.70635338466888       -2.03786622074213
C           -6.82554716284065        2.65455252186405       -2.17734983098949
C           -6.59353155210247        3.95731521627941       -1.76155131806114
C           -5.38084383894902        4.30240063348865       -1.19390927014856
O           -5.20867442819657        5.61431562764710       -0.83201983836909
C           -4.00281287616945        5.96730205087311       -0.27957570278436
C           -3.83461096082162        7.29388641256540        0.07099741251915
C           -2.65261744802892        7.71609592062038        0.66147966701571
C           -1.64919593561711        6.80037931237994        0.91130051593273
C           -1.81037384398796        5.46968386408194        0.56038641782055
C           -2.97857641826915        5.03499763583343       -0.05523382502177
C           -0.96521686384743        2.73101854790190       -0.81928975574636
C           -0.05781302837943        1.71838505110636       -0.60583316797325
N            1.88886086162465       -0.24975531969707        0.20734936725468
C            4.65023438133518        0.27387681666243       -0.02706532789178
C            6.00507577651107        0.48768610860723       -0.16457540221115
H           11.12866460666191       -2.84731194138087       -3.76824151539368
H            8.68070695794353       -3.20193638620713       -3.64425482328703
H            7.35095101526697       -2.03333298073157       -1.95705798859403
H           12.20606324075641       -1.26062393913047       -2.18716606294815
H           12.07956032564970        1.75129112885439        1.23410642975643
H           10.90073937721808        2.99023989015988        3.03783017898788
H            8.48038939233185        2.60044963540740        3.38924260518964
H            7.26174912239551        1.04422392391442        1.94907810767920
H            7.12414707107805       -2.62849230173128        0.54360040821994
H            4.68250721534037       -3.00863795214243        0.77723484144486
H           -1.25506338388819       -3.34182975227854        2.33385694697601
H           -3.66642792905082       -3.88120593002393        2.24158233220232
H           -3.99042704603938       -5.33144104591979        0.15664589969955
H           -4.93636579196795       -7.57877869880509       -0.05459441104260
H           -7.39138915281447       -7.89738108160859       -0.10748276961918
H           -8.87704718983512       -5.90923483915864        0.01740872713520
H           -9.60279683665604       -1.41091983677008        0.33703026573294
H           -8.82008858704097        0.92843455481100        0.65096929688659
H           -6.40137876454963        1.37133733305769        0.90108209783367
H           -4.79189805248223       -0.47160980547570        0.78120890998132
H           -4.00161098169718       -1.73066541666561       -1.43320210091893
H           -1.59798286904968       -1.19173110075655       -1.34076193580827
H           -1.78162476050483       -0.05925725991281        1.71155333482877
H           -3.39602677304410        1.74303964017109        1.31609840346121
H           -3.84233327628660        1.29920739070966       -1.36590268430309
H           -5.99614908762376        0.69343918805631       -2.37086556157365
H           -7.77593541244111        2.39208963127875       -2.61387780582402
H           -7.34233456153496        4.72513058260066       -1.87313241656225
H           -4.64365777790747        7.98032856316765       -0.12109164914785
H           -2.52906139836715        8.75331412674181        0.92990773189888
H           -0.73146158859651        7.11338789461613        1.38492916902460
H           -1.02796957495499        4.75800923171442        0.77173469337234
H           -0.74187566954899        3.52739491631775       -1.51444579367325
H            0.88573045508124        1.71051729450679       -1.12932795496819
H            3.94460812899096        1.07510138179543       -0.18269161561414
H            6.38192511072399        1.46303340247283       -0.43543504247524
