102
 energy: -170.217822795313 gnorm: 0.000043864484 xtb: 6.7.1 (edcfbbe)
C            9.74700277229089        0.74909236656057       -3.93803432595170
C            8.39404383408839        0.52964540092334       -3.77795662000048
C            7.88633286561812        0.14576026222761       -2.54609008379744
C            8.72331640377577       -0.01325636205876       -1.44852216970973
C           10.09990503372697        0.17465210308383       -1.63195718451687
C           10.60082054848093        0.55989390752478       -2.86165527926855
O           11.01196843931443       -0.02767435531226       -0.62705114558633
C           10.52924074365859       -0.41929521283017        0.59660369337097
C           11.45862999883328       -0.61143123010482        1.60198187920366
C           11.04741487208375       -0.97197319333663        2.87642051749930
C            9.70053415878569       -1.11767501042665        3.13941530868614
C            8.76463924239845       -0.92866505079972        2.13399889608674
C            9.16207648998842       -0.60238213254104        0.84328062814559
N            8.24550645691706       -0.40149567046693       -0.19348542387788
C            6.86683103213750       -0.58760804132195        0.02278423347256
C            6.37841246868643       -1.83680656046332        0.40490493780625
C            5.02911536579899       -2.01868372334379        0.61724388647672
C            4.14167382047853       -0.95442098429737        0.45131183085359
C            2.71838165232854       -1.14815113110759        0.67502057689581
N            2.29846668107899       -2.30437070689903        1.20584901359880
N            1.04466084513345       -2.58612551864881        1.11753988480296
C            0.15443678658669       -1.71589578513863        0.67163150223422
C           -1.21390348165784       -2.15193875488821        0.43240929183932
C           -1.78936548586950       -3.13287511246454        1.23936674639290
C           -3.12245892942884       -3.46008949144461        1.09823488252627
C           -3.90014577201299       -2.81960516033956        0.13715714952748
N           -5.28193380297212       -3.07773147908652        0.03313288298036
C           -5.76076328650857       -4.33364282229033       -0.34402846392731
C           -4.91360817077751       -5.39849193570093       -0.62135081258786
C           -5.42483610622741       -6.63160674265661       -0.99725459170857
C           -6.78749449477347       -6.81700771273360       -1.11037716090454
C           -7.64540100882497       -5.75477492936727       -0.86420284452501
C           -7.14144034353221       -4.52261693024415       -0.49293566392932
O           -8.04964097637100       -3.50972892805278       -0.30192859781847
C           -7.56548589640280       -2.29508920078118        0.11576011689347
C           -8.49152484848143       -1.29981660255774        0.36662707817318
C           -8.07812766408740       -0.05774236545600        0.82596481344337
C           -6.73669922135384        0.17322082950960        1.05056860163430
C           -5.80290495840596       -0.81907730860366        0.79344722131642
C           -6.19733377359284       -2.05662453527454        0.30066168168388
C           -3.31013144282855       -1.89150618732168       -0.71874612592692
C           -1.98083523725152       -1.56169930221841       -0.57469012468893
C            0.58486601599109       -0.36305295613866        0.52525913870924
C           -0.34225332578237        0.76144322604552        0.49970634694863
C           -1.52643706550857        0.73469729613965        1.23984863327740
C           -2.45712411275854        1.73887086016733        1.09518783539497
C           -2.22574288749346        2.79104748570132        0.21008637574109
N           -3.22791537069948        3.75917035499183        0.00684443072813
C           -4.45585460418882        3.37829550803216       -0.54274199942131
C           -4.68804155182588        2.09391326290133       -1.01865863815389
C           -5.91657666612696        1.74891821582108       -1.56098018205550
C           -6.92872009457006        2.68289224058506       -1.64314199961127
C           -6.70105599465862        3.97919665896981       -1.20524508872090
C           -5.47544906765790        4.33041597873725       -0.67039598310404
O           -5.30979083914514        5.63985843884565       -0.29370233891048
C           -4.07726202411284        6.01118226049546        0.18446520537272
C           -3.90984260246818        7.34179808121775        0.51907066963096
C           -2.70490906813175        7.78590566454646        1.04382651939993
C           -1.67796696958340        6.88658834201820        1.24560062640737
C           -1.83891020569140        5.55116456052228        0.90817433330521
C           -3.02860756258662        5.09701523228327        0.35405751973516
C           -1.01697189674917        2.85649632509698       -0.47815273451162
C           -0.08192657423087        1.85310449449853       -0.32788042559428
N            1.88087626610774       -0.14520039042532        0.42187871950980
C            4.63204821972370        0.29461540920784        0.06813288095255
C            5.98134799116752        0.47688095511870       -0.14301605772400
H           10.14649365922504        1.05286155246221       -4.89265407194673
H            7.71870956226697        0.65051201330169       -4.61098793100333
H            6.82916729592404       -0.04086331118348       -2.44139864692056
H           11.66560300914442        0.70056110457966       -2.95693123629857
H           12.50105134492107       -0.46735385050380        1.36690830014247
H           11.77977258774026       -1.12316045334800        3.65355885871449
H            9.36227000831738       -1.37629104227025        4.13095163050473
H            7.71463587156633       -1.02789179890623        2.35969188719535
H            7.06678785017637       -2.66068114767596        0.52225323269712
H            4.63786112320479       -2.98151126203454        0.90590343694255
H           -1.18258772224634       -3.60417678020933        1.99688485641152
H           -3.57662414669766       -4.19355612193336        1.74772359596763
H           -3.84582366779739       -5.26101132934938       -0.55349860931041
H           -4.74407653336770       -7.44307659333187       -1.20356527434597
H           -7.19031267174217       -7.77508373283145       -1.39839430838343
H           -8.71387572050214       -5.86083415618252       -0.96302649871816
H           -9.53411876624627       -1.51937872861611        0.20091647247266
H           -8.80644924434653        0.71472663684872        1.01432258887540
H           -6.40481508179685        1.12885648932996        1.42560632046533
H           -4.75698151361265       -0.63024415684932        0.97862713872928
H           -3.90929358805164       -1.42558046754710       -1.48705568817895
H           -1.52861199803540       -0.84848326151160       -1.24826131796069
H           -1.70820992001475       -0.06946109229762        1.93726812380858
H           -3.37899265216260        1.71485772711369        1.65711738563856
H           -3.90191392469046        1.35698126595178       -0.96610007727635
H           -6.07502734888100        0.74255425207474       -1.91586044796875
H           -7.88909012686848        2.41567557203445       -2.05401836641681
H           -7.46336964963036        4.73853122038113       -1.27536291482771
H           -4.73918074074768        8.01419418096079        0.36855089737739
H           -2.58351944082866        8.82623086692187        1.30083407090878
H           -0.74175389125640        7.21299128547471        1.67158647326793
H           -1.03530768284633        4.85455761137823        1.08879017061591
H           -0.83010400749083        3.68169593091687       -1.14916607917855
H            0.84546711323296        1.87888705479718       -0.87920255503065
H            3.94050346517111        1.11499344025804       -0.04412790834041
H            6.36549694963530        1.44546347010917       -0.42762105995624
