  52
        -81.68167175
 C         -5.5999216324        0.0657795381       -0.6606107139
 C         -4.4653751196        0.1254568880        0.3802690182
 C         -5.0508534517        0.2892932906        1.7962871195
 C         -3.5919969395        1.3224809402        0.0734279091
 C         -4.1434750057        2.5961064972        0.0722742541
 C         -3.3900581616        3.7187459003       -0.2182296783
 C         -2.0450658647        3.5795073484       -0.5279981848
 C         -1.4696738061        2.3301719032       -0.5336263081
 C         -2.2261576267        1.1891053438       -0.2252161354
 N         -1.6179454595       -0.0457765284       -0.2319378975
 C         -0.2251494562       -0.1289099016       -0.5189112900
 C          0.2208020106       -0.4797672616       -1.7920381842
 C          1.5652186185       -0.5612095039       -2.0528011411
 C          2.5188887942       -0.2902195669       -1.0405515636
 C          3.9192839149       -0.3791927303       -1.3213923711
 O          4.3731109269       -0.6919146116       -2.4529541839
 C          4.7841663781       -0.0868470507       -0.1911321659
 C          6.1797526037       -0.1404097828       -0.3251747155
 C          6.9958410635        0.1415996412        0.7500969777
 C          6.4477557644        0.4816514660        1.9767936587
 C          5.0681384921        0.5393623351        2.1286752832
 C          4.2391828750        0.2574177835        1.0561687937
 O          2.8924884299        0.3333215748        1.2791026242
 C          2.0497024494        0.0610115288        0.2442525861
 C          0.6979658512        0.1435279228        0.5023260712
 C         -2.3129090212       -1.2025569449        0.0395711823
 C         -1.6339502290       -2.4307581979        0.0351050982
 C         -2.3013608160       -3.6058487010        0.2913640376
 C         -3.6615397612       -3.5822322448        0.5624871842
 C         -4.3327707850       -2.3732983906        0.5819922141
 C         -3.6871610351       -1.1713199214        0.3282377534
 H         -6.2571440787       -0.7771424384       -0.4682220014
 H         -5.1821899143       -0.0447734648       -1.6594118574
 H         -6.1951007191        0.9737355869       -0.6359591477
 H         -4.2468250995        0.3226263689        2.5288696822
 H         -5.6245362008        1.2084029834        1.8733246686
 H         -5.7048981884       -0.5423717468        2.0420005510
 H         -5.1901596907        2.7228140819        0.3026286993
 H         -3.8502052462        4.6946561825       -0.2085068828
 H         -1.4475321996        4.4458214759       -0.7659918274
 H         -0.4261658494        2.2173134721       -0.7798595062
 H         -0.5022556004       -0.6833746140       -2.5680315058
 H          1.9380453351       -0.8285770753       -3.0280691775
 H          6.5860538635       -0.4064729084       -1.2880488606
 H          8.0681656532        0.0958850233        0.6305562717
 H          7.0852082903        0.7025430401        2.8189127127
 H          4.6175982161        0.8019195546        3.0730654444
 H          0.3594623104        0.4135585860        1.4902098814
 H         -0.5756396102       -2.4448532760       -0.1699939180
 H         -1.7629113497       -4.5409084958        0.2813158029
 H         -4.1946274041       -4.4986809569        0.7624006470
 H         -5.3888661742       -2.3734158996        0.8035270398
