52
 energy: -81.678816755797 gnorm: 0.000071234605 xtb: 6.7.1 (edcfbbe)
C           -5.06168010900943       -0.84354473989909        1.86262772154055
C           -3.70795798681737       -0.46169683760298        1.26451209822000
C           -2.71836920112341       -0.23305272294349        2.42595130854602
C           -3.77872864957615        0.79766790984053        0.42128186090708
C           -4.84363533941620        1.68191228359619        0.41535095984357
C           -4.82932149465714        2.81025169930085       -0.38993636377367
C           -3.75411722745913        3.05448032696384       -1.22773599928548
C           -2.68133646752846        2.18548622263711       -1.24173061377281
C           -2.67446343288503        1.07662309223093       -0.39838465931724
N           -1.62228887559366        0.15093131511028       -0.41823988761363
C           -0.28736774482753        0.50625099070161       -0.30529574323311
C            0.10313342348298        1.84607784314810       -0.14709362706373
C            1.42678399934692        2.18806145810171       -0.03461558535340
C            2.44106522551713        1.20406421993103       -0.02172237871433
C            3.82525863042262        1.56104066396274        0.10739202475143
O            4.20957380877716        2.76301583330742        0.17857830568638
C            4.74700650279222        0.44482268177999        0.10419722343726
C            6.13197969886222        0.65289374922940        0.20135195546540
C            7.00015407512355       -0.41765267251779        0.22601173766140
C            6.51689309138092       -1.71489350924495        0.15247693604188
C            5.14957513383936       -1.94134466884936        0.05255232596862
C            4.26970437099517       -0.87450408056105        0.02466084111397
O            2.93702941844671       -1.17321204668241       -0.08316097674696
C            2.04399826506888       -0.14750115734377       -0.12543347016262
C            0.71635736910944       -0.48895819849293       -0.23785423989439
C           -2.07276508648208       -1.17528657471419       -0.47170662100480
C           -1.54433118476924       -2.08402232740137       -1.38631403608550
C           -2.04027802404205       -3.37120388513406       -1.44237576223961
C           -3.07626905567613       -3.74904598720579       -0.60481520037499
C           -3.63610573409807       -2.83051949085914        0.26988023074531
C           -3.15416763782033       -1.53527218738182        0.34662932930938
H           -4.96400578420956       -1.74278155934090        2.46539323315629
H           -5.79906997951992       -1.01698681835938        1.08209896190200
H           -5.41747557641075       -0.05311416608439        2.51845138609866
H           -1.73071542476157        0.04295466188169        2.06689138425978
H           -3.08360315362798        0.56471424523970        3.06905941504310
H           -2.62604063595977       -1.14272687983373        3.01530372935369
H           -5.70190550927710        1.50322295573943        1.04213758815279
H           -5.66840072645964        3.48870540008302       -0.37400060922278
H           -3.75596520217805        3.91391685104735       -1.88042589813500
H           -1.86176746873533        2.33873379789694       -1.92695956136073
H           -0.64066897119419        2.62316369497141       -0.07611544342326
H            1.72560789536617        3.21663191564354        0.08584910990600
H            6.48816226691401        1.66922770603067        0.25958605974955
H            8.06256095003847       -0.24024701835723        0.30337625302162
H            7.19542219247458       -2.55366031723876        0.17025253611372
H            4.74982915881263       -2.94162747617184       -0.00686495729676
H            0.46907466320902       -1.53692403754705       -0.23629736410544
H           -0.77283574862613       -1.76466258642285       -2.06985359702271
H           -1.62721241351046       -4.07404198026082       -2.14954665931383
H           -3.46446623121382       -4.75524691020251       -0.64351566509793
H           -4.45716292083680       -3.14297159130941        0.89411191711769
