52
 energy: -81.769155706946 gnorm: 0.000024663800 xtb: 6.7.1 (edcfbbe)
C           -5.06515396523271        0.00001379211104       -0.71176670407946
C           -3.92829510080877        0.00000704177115        0.32638181668252
C           -4.50839534103003       -0.00000698153758        1.75242948365541
C           -3.10035524279696        1.25748456501870        0.13892523282600
C           -3.70308902845152        2.50078598033959        0.27208866384266
C           -2.99857873254675        3.67952637322088        0.11086628201723
C           -1.65058488773513        3.62639996255713       -0.19372856470250
C           -1.02583850210200        2.40468610487875       -0.33114397646277
C           -1.73664714982031        1.21277062989177       -0.16697188178763
N           -1.08079527276041        0.00001937472362       -0.30980520238685
C            0.30566557602964        0.00002690317686       -0.61553840793142
C            0.72531567163716        0.00008776320199       -1.94857333966707
C            2.06884044088404        0.00008721153702       -2.23794441198838
C            3.02412427487626        0.00003306571443       -1.21753455680736
C            4.45952907727865        0.00005167280158       -1.54376301412273
O            4.88279677546827        0.00008314106977       -2.68552797109669
C            5.33120473340813       -0.00001929312509       -0.35851992571282
C            6.72119019538195       -0.00002436806252       -0.50469507906141
C            7.54437358411371       -0.00006317052166        0.59755854923804
C            6.98991493286540       -0.00011190973010        1.87459534706684
C            5.62266312589647       -0.00012239700181        2.04464282685058
C            4.78446493245189       -0.00007184721938        0.92920481824761
O            3.44882175050980       -0.00007966928588        1.16470193238242
C            2.59578929402914       -0.00002736518040        0.11504826749264
C            1.23284116320216       -0.00003060304035        0.41033809673619
C           -1.73664135330313       -1.21273780754059       -0.16699282159944
C           -1.02583015874931       -2.40464717424432       -0.33119912468359
C           -1.65057184693316       -3.62636642521174       -0.19381041771049
C           -2.99856452669844       -3.67950422969464        0.11078719122578
C           -3.70307888434916       -2.50077005717887        0.27203744845381
C           -3.10034942790471       -1.25746345622538        0.13890300811453
H           -5.69218972788361       -0.88027142979894       -0.60104386277561
H           -4.64786802827881        0.00001687762369       -1.71702186582611
H           -5.69218570890455        0.88030084889935       -0.60103632968563
H           -3.69956095327968       -0.00000279329823        2.48078245812746
H           -5.12212505994021        0.88035672920913        1.92180803487770
H           -5.12210576134135       -0.88038599701668        1.92179834593659
H           -4.75477416947388        2.55797879521468        0.50891472601075
H           -3.49912776839506        4.62926817743906        0.22159271493131
H           -1.08192005095938        4.53477658814578       -0.32547820546088
H            0.02619365719449        2.36896598831532       -0.57034001939527
H           -0.01432097252498        0.00013533661027       -2.73421882411412
H            2.42695126218968        0.00014086974657       -3.25627859217189
H            7.11677842640169        0.00004173509853       -1.50915006974204
H            8.61649893394669       -0.00005267622509        0.47597338001806
H            7.63398973699934       -0.00015833844709        2.74092720517190
H            5.17568304955120       -0.00016764811343        3.02627184924328
H            0.91489429212667       -0.00008154578930        1.44113800657450
H            0.02619951621444       -2.36891781600652       -0.57040396187936
H           -1.08190417147139       -4.53473788385917       -0.32558428392723
H           -3.49910969690200       -4.62925021678824        0.22149371670806
H           -4.75476391207451       -2.55797142816841        0.50886201234870
