52
 energy: -81.769472836038 gnorm: 0.000023659555 xtb: 6.7.1 (edcfbbe)
C           -4.95546988342091       -0.82935156837114        1.92587491278964
C           -3.63069504810902       -0.45147142855050        1.26398551799120
C           -2.59024444582105       -0.21518551707519        2.37736950803965
C           -3.74243014525474        0.80348764899704        0.41558110793653
C           -4.81682425670097        1.67879525124349        0.44475619334074
C           -4.84524634201141        2.79645760869968       -0.37246349657026
C           -3.80980750548135        3.03960942412797       -1.25710385010731
C           -2.73449976815722        2.17283303500928       -1.31086072022202
C           -2.68537587386293        1.07748746653615       -0.45779899977857
N           -1.62392367806336        0.15027021014282       -0.52445489248695
C           -0.30183001599705        0.49712424869767       -0.36414146768690
C            0.07661222672040        1.84255581291742       -0.17855187426106
C            1.39244366964631        2.18259149514776       -0.01659730100011
C            2.40684118632041        1.21814917385787       -0.01278047650424
C            3.80876800049261        1.59617138276616        0.14857546413391
O            4.18987140101038        2.75077980624273        0.25935339260613
C            4.72785297211780        0.44323409130043        0.16786604845285
C            6.10280724311671        0.63876288979512        0.31382716807887
C            6.96888028938003       -0.43056947082460        0.33587285601578
C            6.47127359681240       -1.72419228392050        0.21222649505535
C            5.11848550231232       -1.94266182771944        0.06751308736128
C            4.23759685374100       -0.86073141276933        0.04408164387261
O            2.92037702414461       -1.14590872840482       -0.10341814255225
C            2.02755020918617       -0.12359560957478       -0.13788112054924
C            0.69542300688834       -0.47661544643001       -0.30085759244390
C           -2.08321635545854       -1.18389902358465       -0.54372037939181
C           -1.60066500822257       -2.09594747564479       -1.47369952892159
C           -2.10159682971921       -3.38400400660761       -1.49922825067312
C           -3.10091322504471       -3.75080301782416       -0.61579348640170
C           -3.61476816718850       -2.82675827340516        0.27856159858672
C           -3.11877793037063       -1.53338701155879        0.32872849888887
H           -4.83052603926433       -1.72441203620770        2.53013822365954
H           -5.72778996258265       -1.00836885642411        1.18112736523802
H           -5.28161373156290       -0.03411834632984        2.59151557165691
H           -1.61956474495548        0.05856746165281        1.97357969035270
H           -2.92632525322195        0.58680235757105        3.03132034609299
H           -2.47111823020939       -1.12107120889237        2.96815370211958
H           -5.64690503181682        1.50076930368706        1.10879616101320
H           -5.68742205558066        3.47029163922197       -0.32676782216571
H           -3.84344731455075        3.89476464877281       -1.91495512675870
H           -1.93910712683531        2.33068139416185       -2.02358944222180
H           -0.67693779447084        2.61164128574802       -0.13655208000715
H            1.68495282011487        3.21252907996869        0.12017361804694
H            6.45357843688497        1.65555379649700        0.40763937478911
H            8.03009356813129       -0.26972551392769        0.44854449767827
H            7.14776139375918       -2.56560725080105        0.22926265642986
H            4.71525085142054       -2.93857666241025       -0.02965692083304
H            0.46119144219327       -1.52673134071011       -0.35274526002117
H           -0.85026606447617       -1.78696023189980       -2.18547543846450
H           -1.72066654671074       -4.09407039116045       -2.21758308411379
H           -3.49529275078578       -4.75564260646220       -0.63146750014567
H           -4.40964834115094       -3.13152692955735        0.93960133571199
