52
 energy: -81.687290124803 gnorm: 0.000092439109 xtb: 6.7.1 (edcfbbe)
C           -5.60769191121641        0.01149313405331       -0.63939084518809
C           -4.46348570602722        0.11732606831581        0.38695655823064
C           -5.03656149108791        0.30994642904303        1.80424365387721
C           -3.61202139496873        1.32009115104303        0.04115211710679
C           -4.18353185291834        2.58450384885761        0.01232227814103
C           -3.44772811372494        3.71247888762870       -0.30183607372345
C           -2.09908773184160        3.58885340170985       -0.60090752818810
C           -1.50411121908708        2.34859993590711       -0.57947720043817
C           -2.24529751821535        1.20203396895091       -0.25736721693876
N           -1.61927844668790       -0.02421363828740       -0.24379524200132
C           -0.22502603646711       -0.09053730662948       -0.53399423530281
C            0.22167412249672       -0.32439126950311       -1.83128418413898
C            1.56852499664538       -0.38361304773490       -2.09514165528911
C            2.51787075972744       -0.20810459596826       -1.06136172054178
C            3.91960449832367       -0.26778406871519       -1.33999167983126
O            4.37788123884481       -0.47684823252983       -2.50041932374934
C            4.78456388461381       -0.07188148920028       -0.19199791924372
C            6.18003102683263       -0.10457506959702       -0.32750602124072
C            6.99306652138066        0.08374816506551        0.77060734710483
C            6.44103925067691        0.30732481990645        2.02186522329668
C            5.06113389406094        0.34312366206147        2.17534689569665
C            4.23566645884364        0.15570365995791        1.08028032943130
O            2.88729835420457        0.20458791695412        1.30569243809804
C            2.04714581809348        0.02620808851875        0.24869289425715
C            0.69425925763855        0.08478220505667        0.50936166613299
C           -2.29513885971954       -1.18629231561360        0.05335842344976
C           -1.60087731667186       -2.40519590600021        0.05037816361768
C           -2.24759918307262       -3.58479293198496        0.33842532438253
C           -3.60178711907191       -3.57401103121574        0.63782641789674
C           -4.28964418106664       -2.37432666536403        0.64600742875845
C           -3.66528496559256       -1.16849869761887        0.35913550078940
H           -6.25166611078643       -0.83376428989990       -0.41490690752095
H           -5.19820072972532       -0.12363271114867       -1.63853945511953
H           -6.21480603126317        0.91202946873514       -0.63598010706864
H           -4.22500805269717        0.38429945972199        2.52541930280692
H           -5.63049795737678        1.21754671826099        1.86075161352438
H           -5.66791662182396       -0.52873330639728        2.08299711456264
H           -5.23202732943243        2.69971048677511        0.24042833911020
H           -3.92356976666356        4.68081750712481       -0.31462596315962
H           -1.51332887925453        4.45994475360434       -0.85072951403364
H           -0.45628965619095        2.24813746982488       -0.81293935934088
H           -0.49900117786362       -0.45736549922240       -2.62442984867941
H            1.94130938516119       -0.56260323645967       -3.09058657664750
H            6.59089114369698       -0.27982572070119       -1.30912785864832
H            8.06575542420932        0.05589934961036        0.64950859447956
H            7.07592461689377        0.45455562576422        2.88187593966135
H            4.60767299792845        0.51562826386851        3.13890754270006
H            0.35357140494621        0.26559758928471        1.51656631950146
H           -0.54777387588904       -2.40904216495017       -0.18102105362901
H           -1.69769975092124       -4.51316340937879        0.33063963456258
H           -4.11834748610619       -4.49368543675324        0.86505292197269
H           -5.34216298161378       -2.38495212994530        0.88422558431310
