  93
       -134.82687790
 C         -9.1126052544        3.2512087800       -1.4146820293
 C         -7.9963317233        2.3136428810       -1.0684817946
 C         -7.7068521223        1.2198082731       -1.8739649039
 C         -6.6631110472        0.3602246129       -1.5799246745
 C         -6.3896605739       -0.7932682822       -2.4989013238
 C         -5.8576390495        0.5699444967       -0.4422743189
 B         -4.6765111813       -0.4063070867       -0.0963336939
 C         -3.2606766695        0.1687810397        0.1232073521
 C         -2.8730240314        1.4170744351       -0.4083038997
 C         -1.6069316679        1.9211173352       -0.2426430902
 C         -0.6495586584        1.1947022527        0.4744845852
 N          0.6520063638        1.6861214267        0.6221412298
 C          0.9981480700        2.9646395856        1.0240194568
 C          0.1857336499        4.0124960646        1.4217444841
 C          0.7962034960        5.1965469972        1.8041411050
 C          2.1832690723        5.3328025778        1.7936247901
 C          3.0016688614        4.2856407736        1.4208520366
 C          2.4120994653        3.0824975514        1.0407839631
 C          2.9291375171        1.8171395383        0.6304973215
 C          4.2135653411        1.3233176483        0.4388930987
 C          4.3603385891        0.0161673555       -0.0015919916
 N          5.6538120919       -0.5149523582       -0.2031121496
 C          6.0698503429       -1.6212073885        0.5165355364
 C          5.2937208703       -2.2016601517        1.5228938133
 C          5.7431907848       -3.3061423212        2.2126244428
 C          6.9941882075       -3.8609430101        1.9272149393
 C          7.7980443431       -3.2792046094        0.9684428331
 C          7.3592560970       -2.1636268614        0.2685644147
 O          8.2117245573       -1.6084540293       -0.6326081437
 C          7.7991746321       -0.5099103977       -1.3184258092
 C          8.6801478849        0.0420406513       -2.2382604724
 C          8.3039417735        1.1308531965       -2.9974634836
 C          7.0184445908        1.6619263094       -2.8572440971
 C          6.1350288170        1.1261363868       -1.9460289047
 C          6.5069193211        0.0519502171       -1.1337597822
 C          3.2446659447       -0.7940529741       -0.2693257311
 C          1.9607529250       -0.3153465341       -0.0896425189
 C          1.8012692235        0.9803414424        0.3798311653
 C         -1.0083559120       -0.0400313639        1.0278768401
 C         -2.2773157866       -0.5326768465        0.8527002559
 C         -4.8897977388       -1.9594689056        0.0209535988
 C         -4.1036145918       -2.8662610049       -0.7123013878
 C         -3.0373536266       -2.3986089208       -1.6628613941
 C         -4.3095035370       -4.2321260283       -0.5961048675
 C         -5.2818820343       -4.7527185466        0.2449003773
 C         -5.5022142157       -6.2310804814        0.3507815075
 C         -6.0626676490       -3.8611565456        0.9690592237
 C         -5.8798154535       -2.4930205220        0.8703103590
 C         -6.7407070675       -1.5826169610        1.6949759012
 C         -6.1532927176        1.6808496437        0.3687631631
 C         -5.3626056029        1.9792630002        1.6112982646
 C         -7.2066647540        2.5241493366        0.0527721695
 H         -9.5272198013        3.7091338259       -0.5189373390
 H         -9.9062350638        2.7300133335       -1.9462200485
 H         -8.7433205256        4.0495576856       -2.0606706581
 H         -8.3122316522        1.0386001959       -2.7523957472
 H         -5.3771946739       -0.7344777612       -2.8948640416
 H         -7.0888026276       -0.7981268893       -3.3322957798
 H         -6.4769777686       -1.7368611613       -1.9630363223
 H         -3.5923044008        1.9783753058       -0.9879949686
 H         -1.3257379067        2.8622886187       -0.6940090165
 H         -0.8882585959        3.9102656765        1.4450422449
 H          0.1845332755        6.0285143792        2.1189304112
 H          2.6218543224        6.2731459510        2.0936121925
 H          4.0762601077        4.3899305492        1.4272948527
 H          5.0799403181        1.9329076708        0.6462463569
 H          4.3341007731       -1.7714300882        1.7615354501
 H          5.1255142156       -3.7397701508        2.9830131573
 H          7.3378646538       -4.7293384656        2.4654181218
 H          8.7789337464       -3.6667628677        0.7433546645
 H          9.6545567700       -0.4083763640       -2.3415365350
 H          8.9931252508        1.5579800579       -3.7078362652
 H          6.7100125470        2.4933027778       -3.4709607037
 H          5.1396684819        1.5321280663       -1.8597930913
 H          3.4033547270       -1.7921991076       -0.6475589366
 H          1.1080639090       -0.9298103979       -0.3324467360
 H         -0.2834080994       -0.5833240178        1.6182712872
 H         -2.5438507863       -1.4782675322        1.3036224226
 H         -2.0600136190       -2.4367145319       -1.1803840572
 H         -3.2105744311       -1.3739847684       -1.9794886239
 H         -3.0029976174       -3.0434803330       -2.5399635783
 H         -3.6972671064       -4.9085938114       -1.1783338333
 H         -6.2698433701       -6.5457172615       -0.3581784609
 H         -4.5894307016       -6.7775589501        0.1228224270
 H         -5.8378413171       -6.5028904912        1.3495955392
 H         -6.8277778732       -4.2480755944        1.6292103204
 H         -7.4380228690       -2.1552055457        2.3028439518
 H         -6.1278529553       -0.9690014190        2.3533585880
 H         -7.3066224895       -0.9094294104        1.0531692502
 H         -4.8739108449        1.0874535391        1.9932243026
 H         -6.0100470454        2.3915348872        2.3836576285
 H         -4.5873704242        2.7153110326        1.3959821698
 H         -7.4206913399        3.3654501596        0.6989634087
