  58
        -96.32225202
 C         -7.7843286781        1.4975055911        1.4384706048
 C         -6.6885489262        2.2607485868        1.8281528514
 C         -5.4052896220        1.9493659905        1.4152064819
 C         -5.2367623304        0.8534374669        0.5823342615
 C         -6.3392162486        0.0465381710        0.2239369878
 C         -7.6184814683        0.3782152151        0.6466976073
 C         -5.8174672359       -1.0522041880       -0.5434704998
 C         -6.4133080910       -2.1436644032       -1.1598044446
 C         -5.6086976472       -3.0407961942       -1.8341760765
 C         -4.2313865719       -2.8525448124       -1.9030956104
 C         -3.6175784271       -1.7713500308       -1.2970921553
 C         -4.4197544598       -0.8756743045       -0.6094327841
 N         -4.0762728394        0.3006698836        0.0520441524
 C         -2.8056128196        0.8336292673        0.1178008368
 C         -2.5674575072        2.2199479530        0.1106260443
 N         -1.3498080257        2.7061757206        0.2327526695
 C         -0.3423750737        1.8516726059        0.3278248555
 C         -0.5539531191        0.4759578099        0.2266824666
 C          0.5535081686       -0.4801354006        0.2222259431
 C          0.3432332847       -1.8572006740        0.3015902860
 N          1.3533725799       -2.7092643916        0.2112365049
 C          2.5713242966       -2.2197192813        0.1076386300
 C          2.8061230481       -0.8331553374        0.1225594543
 N          4.0758172092       -0.2970623628        0.0601469016
 C          5.2370509208       -0.8476613587        0.5905088332
 C          5.4060980152       -1.9388373060        1.4295052535
 C          6.6899681730       -2.2484925699        1.8420604899
 C          7.7856028221       -1.4884298707        1.4454623565
 C          7.6192904467       -0.3740315582        0.6468407132
 C          6.3394047250       -0.0438814954        0.2245246537
 C          5.8166410617        1.0504665849       -0.5486497360
 C          6.4118336696        2.1365114400       -1.1756486824
 C          5.6060574093        3.0293349519       -1.8544532912
 C          4.2280347869        2.8429030573       -1.9163246954
 C          3.6147803792        1.7674036777       -1.2994103632
 C          4.4184474904        0.8751706847       -0.6090307541
 N          1.7863606176        0.0175240944        0.1445327497
 N         -1.7871451445       -0.0187595297        0.1364575322
 H         -8.7709466382        1.7760515625        1.7768682496
 H         -6.8393397349        3.1134686781        2.4732220030
 H         -4.5685186163        2.5363608733        1.7601322708
 H         -8.4613532044       -0.2354754090        0.3677039065
 H         -7.4825332098       -2.2823944640       -1.1110615580
 H         -6.0504204305       -3.8996555535       -2.3169501984
 H         -3.6263171284       -3.5665431370       -2.4414077980
 H         -2.5505063736       -1.6316013649       -1.3525957266
 H         -3.3606580457        2.9376314630       -0.0379952092
 H          0.6466547962        2.2632504142        0.4569106306
 H         -0.6466310402       -2.2718762921        0.4132568041
 H          3.3684095764       -2.9347826264       -0.0317065927
 H          4.5691676256       -2.5230287783        1.7791495072
 H          6.8414166781       -3.0965191257        2.4928803801
 H          8.7726520478       -1.7651732186        1.7841854074
 H          8.4622379581        0.2371330108        0.3623490683
 H          7.4815224817        2.2735912406       -1.1327104935
 H          6.0474228875        3.8825242064       -2.3474008460
 H          3.6219568978        3.5547674477       -2.4566585834
 H          2.5470806364        1.6299522063       -1.3480098541
  58
        -96.32209947
 C         -5.4187379268       -3.4754785505       -1.1739049846
 C         -4.0399170304       -3.2902761485       -1.1336925955
 C         -3.4792010919       -2.1361903980       -0.6169698888
 C         -4.3373048684       -1.1593693994       -0.1391542612
 C         -5.7354720578       -1.3416229429       -0.1680818547
 C         -6.2773624521       -2.5080712812       -0.6900897003
 C         -6.3207937011       -0.1588899187        0.4038524057
 C         -7.6343672197        0.2435036453        0.5982881761
 C         -7.8706956755        1.4932392941        1.1366599985
 C         -6.8147971688        2.3429731672        1.4500854660
 C         -5.4978776342        1.9601802384        1.2665195952
 C         -5.2519593139        0.6886409541        0.7704513421
 N         -4.0486085580        0.0642099735        0.4612679232
 C         -2.7813086998        0.5184365367        0.7617300401
 C         -2.5034367220        1.2772892218        1.9131417987
 N         -1.2914906474        1.7290636981        2.1600931508
 C         -0.3236924515        1.4198969202        1.3103197380
 C         -0.5655765542        0.5868754536        0.2174561519
 C          0.5084291522        0.1407801064       -0.6701520327
 C          0.2508116273       -0.4617466962       -1.9019105063
 N          1.2353210620       -0.9471323792       -2.6432081450
 C          2.4708207187       -0.7946773411       -2.2138120844
 C          2.7509675663       -0.1044215885       -1.0206444270
 N          4.0366633886        0.0992285648       -0.5641805745
 C          4.4178168606        0.0929217013        0.7759625473
 C          3.6443128218       -0.0476726175        1.9166057800
 C          4.2932167891       -0.0617970251        3.1380843412
 C          5.6769454739        0.0571457888        3.2292206585
 C          6.4525419259        0.1878053706        2.0940585923
 C          5.8212328405        0.2051987660        0.8579954517
 C          6.3081410446        0.3237514202       -0.4901049763
 C          7.5774956472        0.5003111063       -1.0216697882
 C          7.7088214279        0.6360221943       -2.3897835089
 C          6.5893351019        0.6250721312       -3.2155010823
 C          5.3151544931        0.4477273879       -2.7061194371
 C          5.1799978267        0.2643061029       -1.3380937036
 N          1.7582918685        0.3273276974       -0.2507775572
 N         -1.7967186494        0.1583347171       -0.0541257503
 H         -5.8183806058       -4.3892355076       -1.5875462733
 H         -3.3910098854       -4.0639533756       -1.5163166932
 H         -2.4107857300       -1.9978092304       -0.5908625140
 H         -7.3469433861       -2.6511116985       -0.7134604576
 H         -8.4503859828       -0.4074491689        0.3242252327
 H         -8.8846897107        1.8260528386        1.2997655391
 H         -7.0251171871        3.3278744695        1.8394450877
 H         -4.6984444266        2.6511498468        1.4837925990
 H         -3.2550282652        1.4814403718        2.6611228019
 H          0.6598343407        1.8145805288        1.5133817335
 H         -0.7547950000       -0.5757565336       -2.2762025421
 H          3.2457911680       -1.2647718567       -2.8007394486
 H          2.5723773039       -0.1360802717        1.8532407808
 H          3.7105722724       -0.1651239572        4.0413415403
 H          6.1465600321        0.0444869018        4.2014507061
 H          7.5265659716        0.2731174053        2.1605261736
 H          8.4395649681        0.5395022061       -0.3734921332
 H          8.6872186735        0.7712384217       -2.8257451065
 H          6.7141296188        0.7656315278       -4.2787869961
 H          4.4605405013        0.4795296491       -3.3636582889
  58
        -96.32208784
 C         -6.1205130810        2.2684190510        1.5554527330
 C         -4.7454834772        2.2643536290        1.7718085743
 C         -3.9407552728        1.2475674702        1.2910304189
 C         -4.5471678658        0.2272852287        0.5769482736
 C         -5.9413831993        0.2153700670        0.3644687509
 C         -6.7310081960        1.2454955900        0.8566542356
 C         -6.2364128648       -0.9751865996       -0.3866155491
 C         -7.4112263886       -1.4896255656       -0.9164125223
 C         -7.3495486111       -2.6549716067       -1.6549382407
 C         -6.1317309545       -3.2865568096       -1.8857943790
 C         -4.9492237207       -2.7921164642       -1.3648244377
 C         -5.0093566783       -1.6455992619       -0.5871174790
 N         -3.9903589579       -0.9205822126        0.0203079406
 C         -2.6539113038       -1.2611318220        0.0659887566
 C         -2.2171461962       -2.5938521982        0.1702275969
 N         -0.9362712427       -2.8984229688        0.1371440856
 C         -0.0614233340       -1.9093568820        0.0334407756
 C         -0.4766858619       -0.5770186454        0.0410172966
 C          0.4734261966        0.5358037940        0.0245526704
 C          0.0505942684        1.8652059617       -0.0185612689
 N          0.9193931966        2.8618393546        0.0593420757
 C          2.2016236315        2.5646075427        0.0991360864
 C          2.6459850528        1.2320939760        0.0271404580
 N          3.9854511618        0.9036001898       -0.0123016944
 C          4.5587210785       -0.2182556525        0.5794326743
 C          3.9639787368       -1.2353928199        1.3076525550
 C          4.7836879863       -2.2225748872        1.8239346852
 C          6.1616553754       -2.2005677586        1.6283330324
 C          6.7598975324       -1.1810319109        0.9141544308
 C          5.9553325648       -0.1807985893        0.3859908164
 C          6.2355577434        0.9972846005       -0.3900678854
 C          7.4064216197        1.5250898011       -0.9154228612
 C          7.3297161590        2.6695286522       -1.6845546172
 C          6.1015222435        3.2660417685       -1.9507802550
 C          4.9227989709        2.7581145715       -1.4344142754
 C          4.9971867753        1.6347634081       -0.6247347506
 N          1.7705148117        0.2333634404        0.0372392474
 N         -1.7721645097       -0.2683852422        0.0479613966
 H         -6.7147184239        3.0823861153        1.9429761205
 H         -4.2952744427        3.0737857933        2.3269432386
 H         -2.8764860898        1.2495936400        1.4613791636
 H         -7.7982097079        1.2413507132        0.6950494766
 H         -8.3493483826       -0.9793533909       -0.7601730082
 H         -8.2513088707       -3.0740506900       -2.0753652983
 H         -6.1047843957       -4.1801998928       -2.4912737423
 H         -4.0134475484       -3.2807230392       -1.5872398279
 H         -2.9048512290       -3.4127935284        0.3215850671
 H          0.9820696932       -2.1760294686       -0.0298173603
 H         -0.9946377958        2.1233866582       -0.0880217346
 H          2.8852697421        3.3902575817        0.2306043323
 H          2.8975466535       -1.2569175792        1.4618449459
 H          4.3431097911       -3.0294873539        2.3904435105
 H          6.7679387448       -2.9914392727        2.0442375705
 H          7.8290493558       -1.1566809347        0.7681473299
 H          8.3533963020        1.0408937395       -0.7322108552
 H          8.2280462739        3.0986575628       -2.1020154453
 H          6.0633609643        4.1421065886       -2.5808978304
 H          3.9795088067        3.2182481080       -1.6842927779
  58
        -96.32200230
 C         -6.1534177748        2.2691046553        1.5089565510
 C         -4.7820088703        2.2713530469        1.7473756847
 C         -3.9658041453        1.2555954989        1.2838545771
 C         -4.5566065555        0.2302924337        0.5639800040
 C         -5.9472203734        0.2118092047        0.3297808760
 C         -6.7486294157        1.2406849025        0.8051558527
 C         -6.2256066251       -0.9829623729       -0.4209327625
 C         -7.3901164780       -1.5044597028       -0.9662656679
 C         -7.3125042327       -2.6725642698       -1.6989848652
 C         -6.0885968193       -3.2996343457       -1.9091342195
 C         -4.9161204578       -2.7978401187       -1.3727063473
 C         -4.9927676592       -1.6488041283       -0.6000632525
 N         -3.9863127445       -0.9171504992        0.0203629678
 C         -2.6495962201       -1.2523887459        0.0894943244
 C         -2.2102549066       -2.5833582654        0.2039457475
 N         -0.9280340765       -2.8840101439        0.1943832712
 C         -0.0549795442       -1.8921104416        0.1027120526
 C         -0.4747121004       -0.5611289698        0.0976223582
 C          0.4740835985        0.5533817877        0.0907323576
 C          0.0527876160        1.8838621770        0.0799350983
 N          0.9244956708        2.8778855811        0.1602152287
 C          2.2070097961        2.5787334084        0.1733118625
 C          2.6478943178        1.2470539813        0.0740216328
 N          3.9853015362        0.9138777038        0.0083522949
 C          4.5591921799       -0.2242423363        0.5674363563
 C          3.9711109766       -1.2427348562        1.2990872985
 C          4.7906949704       -2.2487095976        1.7777667979
 C          6.1625554335       -2.2438140845        1.5419798516
 C          6.7549289990       -1.2222003407        0.8259611322
 C          5.9502375695       -0.2028344483        0.3358903647
 C          6.2252588504        0.9837062044       -0.4289983254
 C          7.3888209773        1.5038442389       -0.9776874211
 C          7.3078360800        2.6626362330       -1.7246806311
 C          6.0816172969        3.2813899617       -1.9458553986
 C          4.9100785374        2.7809298939       -1.4061617694
 C          4.9899949853        1.6419802262       -0.6190531471
 N          1.7706808139        0.2498168254        0.0794960687
 N         -1.7709779492       -0.2564340104        0.0830111295
 H         -6.7569914623        3.0822971695        1.8835916663
 H         -4.3438986180        3.0848527627        2.3062436086
 H         -2.9047047053        1.2616053707        1.4724123158
 H         -7.8131167483        1.2315956167        0.6265794486
 H         -8.3326587101       -0.9977493183       -0.8257652105
 H         -8.2061709656       -3.0977394725       -2.1304225485
 H         -6.0485991152       -4.1953214788       -2.5107919320
 H         -3.9752173554       -3.2833216222       -1.5795514215
 H         -2.8977585047       -3.4044010103        0.3440402695
 H          0.9903205814       -2.1554794093        0.0592188125
 H         -0.9928304938        2.1453043606        0.0329745011
 H          2.8937738536        3.4019677595        0.3038641217
 H          2.9096227236       -1.2507341466        1.4853905846
 H          4.3547627501       -3.0570881926        2.3456781689
 H          6.7688799194       -3.0490215623        1.9291054070
 H          7.8198130600       -1.2105816214        0.6500242331
 H          8.3332841352        1.0033087139       -0.8284769067
 H          8.2007092396        3.0866100300       -2.1588757402
 H          6.0392035356        4.1696143525       -2.5583363551
 H          3.9674418160        3.2593656068       -1.6214922669
  58
        -96.32196444
 C         -7.6247782358        0.2589414576        2.5018083378
 C         -6.4929759573        0.7221731158        3.1651546359
 C         -5.2542099048        0.7518341211        2.5496883636
 C         -5.1695082738        0.3172870466        1.2354511707
 C         -6.3060501783       -0.1966989543        0.5724290572
 C         -7.5395122152       -0.2160196001        1.2077661539
 C         -5.8641481025       -0.6490337171       -0.7193503060
 C         -6.5209145010       -1.2264219980       -1.7973949283
 C         -5.7868784627       -1.5474122868       -2.9223293242
 C         -4.4201983834       -1.2900024194       -2.9808162189
 C         -3.7467005261       -0.7151332563       -1.9184481612
 C         -4.4766482626       -0.4047712020       -0.7829644322
 N         -4.0655960186        0.2071415441        0.3980202332
 C         -2.7847524662        0.6544043248        0.6518528073
 C         -2.5236236367        1.8269676521        1.3824659570
 N         -1.2913740653        2.2319848232        1.6107962493
 C         -0.2953597834        1.5076108509        1.1224321990
 C         -0.5396224785        0.3649568592        0.3599812535
 C          0.5429108812       -0.4231439928       -0.2326138045
 C          0.2942396010       -1.5849916250       -0.9644537796
 N          1.2865415487       -2.3092822195       -1.4603498418
 C          2.5184551556       -1.8826957677       -1.2731029292
 C          2.7823150399       -0.6903695112       -0.5761866480
 N          4.0644301322       -0.2196041792       -0.3767949806
 C          4.5111574208        0.4243464635        0.7732192191
 C          3.8220651419        0.7435529973        1.9314720162
 C          4.5263835940        1.3545741781        2.9528967973
 C          5.8841167531        1.6374899808        2.8326464375
 C          6.5780129275        1.3073741962        1.6851324030
 C          5.8896621342        0.6943816946        0.6471621294
 C          6.2868645346        0.2249349835       -0.6530561723
 C          7.4918146182        0.2563456422       -1.3404887245
 C          7.5321228653       -0.2407757509       -2.6283987825
 C          6.3830817634       -0.7380317499       -3.2348714068
 C          5.1724655534       -0.7815290493       -2.5664894402
 C          5.1344680360       -0.3242862827       -1.2578830807
 N          1.7874677753        0.0117726394       -0.0450416014
 N         -1.7845386942       -0.0500988058        0.1343868092
 H         -8.5748943680        0.2562968635        3.0144323872
 H         -6.5793153966        1.0603641957        4.1869509999
 H         -4.3852737316        1.0829061929        3.0967269044
 H         -8.4089307955       -0.6035659889        0.6991798827
 H         -7.5825623899       -1.4161942093       -1.7529430901
 H         -6.2766246739       -2.0008999589       -3.7710965667
 H         -3.8716674686       -1.5455726741       -3.8751519209
 H         -2.6883861933       -0.5178686530       -1.9692543593
 H         -3.3154052654        2.4648882438        1.7463110122
 H          0.7079215294        1.8536659728        1.3165138833
 H         -0.7096222847       -1.9455681621       -1.1270462900
 H          3.3099115529       -2.5174788631       -1.6433495483
 H          2.7713007079        0.5246857290        2.0300832082
 H          4.0100090774        1.6186010862        3.8637911661
 H          6.3985269635        2.1194689343        3.6505921989
 H          7.6327354803        1.5173224888        1.5927767263
 H          8.3737625208        0.6710161184       -0.8767679434
 H          8.4595164104       -0.2288309169       -3.1810104354
 H          6.4328452582       -1.0928734343       -4.2534305470
 H          4.2881065421       -1.1393356580       -3.0702814603
  58
        -96.32196305
 C         -5.6571552863        0.5214258909       -3.1273322699
 C         -4.2734936952        0.6175125992       -3.0125567310
 C         -3.6137236056        0.2277886771       -1.8610392912
 C         -4.3766597405       -0.2627621813       -0.8139653696
 C         -5.7783532269       -0.3715909689       -0.9242770158
 C         -6.4205645235        0.0244172946       -2.0893483895
 C         -6.2519479236       -0.9184262398        0.3188127798
 C         -7.5215891992       -1.2059077798        0.7989002427
 C         -7.6486997338       -1.6838012868        2.0884198751
 C         -6.5300927599       -1.8456712021        2.8994172369
 C         -5.2550883410       -1.5677168104        2.4391871224
 C         -5.1153740498       -1.1324418519        1.1298405461
 N         -3.9764208136       -0.7557565568        0.4265931500
 C         -2.6655388779       -0.9177781562        0.8237968402
 C         -2.2441978909       -1.9879099698        1.6337335552
 N         -0.9895155261       -2.1053557956        2.0159455640
 C         -0.1177029718       -1.2044729978        1.5883188034
 C         -0.5042801365       -0.1901308997        0.7119850122
 C          0.4579077385        0.7497010014        0.1361718726
 C          0.0567117648        1.9274036660       -0.4950076677
 N          0.9367048427        2.7111634860       -1.0996871370
 C          2.2092510452        2.3773114214       -1.0435218566
 C          2.6375020822        1.2420982297       -0.3317687000
 N          3.9655222660        0.8822080693       -0.2348816638
 C          4.4360713823       -0.4294406638       -0.2219085672
 C          3.7333871038       -1.6232735359       -0.2251395900
 C          4.4604988838       -2.7995612021       -0.2542743078
 C          5.8519520147       -2.7953311607       -0.2825715295
 C          6.5561198748       -1.6073236317       -0.2884201094
 C          5.8457635841       -0.4151765391       -0.2587320367
 C          6.2478012262        0.9657604621       -0.2546041050
 C          7.4888428825        1.5859868045       -0.2414375022
 C          7.5386889225        2.9649102390       -0.1821149625
 C          6.3697340901        3.7153593437       -0.1074236013
 C          5.1222943085        3.1168284552       -0.1221443392
 C          5.0636005403        1.7353482709       -0.2291048225
 N          1.7469231985        0.4290561773        0.2257475959
 N         -1.7784234711       -0.0480289749        0.3532366924
 H         -6.1360021111        0.8389080781       -4.0416081427
 H         -3.6997076089        1.0074829310       -3.8400507919
 H         -2.5424498375        0.3082661599       -1.7776440240
 H         -7.4932222723       -0.0581500662       -2.1772836756
 H         -8.3887438968       -1.0484021087        0.1759746584
 H         -8.6264693935       -1.9177451571        2.4817418998
 H         -6.6574799226       -2.1901527042        3.9147682625
 H         -4.4080789056       -1.6670924066        3.0998416420
 H         -2.9150794752       -2.7778421538        1.9368960125
 H          0.9031388098       -1.3039000938        1.9234832010
 H         -0.9803835392        2.2229710383       -0.5345129528
 H          2.8933493291        2.9930959458       -1.6082069962
 H          2.6561665688       -1.6337499115       -0.1998781442
 H          3.9341868894       -3.7424595407       -0.2529405136
 H          6.3840647021       -3.7347232292       -0.3016047391
 H          7.6350990054       -1.6000163220       -0.3173801238
 H          8.3930265183        0.9972406413       -0.2674477477
 H          8.4932579812        3.4691140041       -0.1743947122
 H          6.4345816175        4.7903280195       -0.0293150715
 H          4.2323532985        3.7190171373       -0.0264850937
  58
        -96.32167195
 C         -7.7590003336        0.3516391332        2.2691890351
 C         -6.6594488109        0.7193450360        3.0378758612
 C         -5.3769726738        0.7104956143        2.5186604468
 C         -5.2131991062        0.3350003745        1.1938036671
 C         -6.3203193155       -0.0841370148        0.4230763872
 C         -7.5984606362       -0.0655075331        0.9625056045
 C         -5.8046069583       -0.4996266420       -0.8536019080
 C         -6.4067240913       -0.9893417347       -2.0045093127
 C         -5.6070261117       -1.2994922430       -3.0868705094
 C         -4.2282579811       -1.1181185847       -3.0306146927
 C         -3.6084617842       -0.6311215749       -1.8941439220
 C         -4.4056577327       -0.3300509453       -0.8020474934
 N         -4.0552897510        0.2042055795        0.4358021300
 C         -2.7786872641        0.5872039445        0.7932320864
 C         -2.5181449113        1.7079403966        1.6015833192
 N         -1.2869016629        2.0564868671        1.9128279671
 C         -0.2893295656        1.3299662387        1.4306039810
 C         -0.5301236338        0.2394812375        0.5950247383
 C          0.5496018957       -0.5483098889       -0.0033265559
 C          0.2939828019       -1.7405340231       -0.6824972926
 N          1.2788674990       -2.4673414124       -1.1888465002
 C          2.5078833118       -2.0080700052       -1.0727158740
 C          2.7748081286       -0.7816434058       -0.4395608705
 N          4.0528960887       -0.2689714161       -0.3420035550
 C          4.5580228523        0.4330708954        0.7473357631
 C          3.9447417468        0.7673381148        1.9431753292
 C          4.6981749248        1.4400817387        2.8877710852
 C          6.0306319645        1.7690925321        2.6551701754
 C          6.6498443900        1.4246696511        1.4696995746
 C          5.9113170994        0.7496858788        0.5075169815
 C          6.2284739728        0.2478347255       -0.8025461442
 C          7.3752441655        0.3004490391       -1.5821718050
 C          7.3383700278       -0.2430813083       -2.8512552797
 C          6.1685642084       -0.8078085410       -3.3493789965
 C          5.0150277279       -0.8727111449       -2.5883938464
 C          5.0572821516       -0.3671338337       -1.2978277676
 N          1.7909549854       -0.0818609368        0.1157382896
 N         -1.7747454642       -0.1230592453        0.2914842142
 H         -8.7446796685        0.3766833286        2.7088216597
 H         -6.8069183824        1.0129017854        4.0664797320
 H         -4.5374067915        0.9661072927        3.1458515858
 H         -8.4443995398       -0.3813027522        0.3714166328
 H         -7.4771738538       -1.1207158080       -2.0478619277
 H         -6.0535896668       -1.6855142717       -3.9909811020
 H         -3.6266185270       -1.3643103364       -3.8929019064
 H         -2.5401995981       -0.4943917418       -1.8567062100
 H         -3.3057547015        2.3532318517        1.9610536923
 H          0.7122972877        1.6349490927        1.6904374043
 H         -0.7095318813       -2.1211844450       -0.7933596819
 H          3.2974547299       -2.6398480600       -1.4521649189
 H          2.9140485727        0.5116500200        2.1276090632
 H          4.2417153516        1.7166570594        3.8265002745
 H          6.5854626394        2.2976682143        3.4159291234
 H          7.6857989777        1.6698413337        1.2913575472
 H          8.2719484205        0.7661250109       -1.2027667169
 H          8.2195639829       -0.2153338102       -3.4743236772
 H          6.1559653265       -1.1998454540       -4.3553277759
 H          4.1108618347       -1.2846552889       -3.0087676038
  58
        -96.32112960
 C         -6.5914583744        1.9082737038       -1.3282101854
 C         -6.3829299113        2.0825235650        0.0358813109
 C         -5.2653568723        1.5679348521        0.6693131979
 C         -4.3542413213        0.8536598384       -0.0937867759
 C         -4.5374639342        0.7141483664       -1.4878614683
 C         -5.6661792105        1.2362171980       -2.1028196045
 C         -3.3821595113        0.0209548549       -1.9921642273
 C         -3.0075775556       -0.3960384969       -3.2622583133
 C         -1.8028883432       -1.0550175325       -3.4111937383
 C         -0.9864866787       -1.3071848206       -2.3128770568
 C         -1.3402463133       -0.9008927441       -1.0389175623
 C         -2.5391036921       -0.2236045048       -0.8889794707
 N         -3.1486697215        0.2640149432        0.2672391712
 C         -2.6209625671        0.1425083220        1.5349289339
 C         -3.4054145422       -0.0362327891        2.6888442233
 N         -2.8492924477       -0.1645210039        3.8753980142
 C         -1.5263550456       -0.1335668675        3.9629534881
 C         -0.7337397259        0.0118559030        2.8247577092
 C          0.7350020249        0.0021869998        2.8238459327
 C          1.5286485386        0.1530796865        3.9606630829
 N          2.8514766487        0.1850479278        3.8717969870
 C          3.4064151470        0.0517744183        2.6852202518
 C          2.6209669087       -0.1336458463        1.5330558735
 N          3.1483675018       -0.2616694795        0.2658152543
 C          4.3529317381       -0.8551382595       -0.0920683938
 C          5.2633027907       -1.5659503877        0.6752093839
 C          6.3802587071       -2.0854411948        0.0446959405
 C          6.5889641124       -1.9190076688       -1.3203886728
 C          5.6642421279       -1.2506290013       -2.0988772282
 C          4.5361613845       -0.7236950951       -1.4869318896
 C          3.3818520274       -0.0315135901       -1.9949238297
 C          3.0075453357        0.3791307831       -3.2671285221
 C          1.8041362325        1.0397451023       -3.4191278176
 C          0.9886129918        1.2996844680       -2.3219706371
 C          1.3418585383        0.8994250801       -1.0460279798
 C          2.5394199208        0.2205102108       -0.8928791492
 N          1.2982230447       -0.1464174459        1.6283464421
 N         -1.2981100686        0.1550194805        1.6292275276
 H         -7.4789450165        2.3195409225       -1.7851970726
 H         -7.1055160518        2.6371695211        0.6156249050
 H         -5.1106198690        1.7478409770        1.7215530605
 H         -5.8085749855        1.1240897338       -3.1668264357
 H         -3.6483438604       -0.2079018162       -4.1104547911
 H         -1.4884112080       -1.3826608308       -4.3909249808
 H         -0.0503324446       -1.8252337762       -2.4572379285
 H         -0.6947699805       -1.0866619884       -0.1968790148
 H         -4.4812904116       -0.1198280552        2.6531245144
 H         -1.1163450837       -0.2564013256        4.9540786415
 H          1.1193258181        0.2799259683        4.9515626399
 H          4.4821656174        0.1365308329        2.6476314761
 H          5.1082823841       -1.7394699915        1.7285055665
 H          7.1018200340       -2.6383697706        0.6274228498
 H          7.4755094566       -2.3346299864       -1.7751640414
 H          5.8065281522       -1.1451316891       -3.1635354688
 H          3.6478648171        0.1855436093       -4.1144801361
 H          1.4900313837        1.3627408644       -4.4004900963
 H          0.0534650407        1.8188763250       -2.4688914376
 H          0.6971861095        1.0911484881       -0.2047202794
