  58
        -96.32225202
 C         -7.7843286781        1.4975055911        1.4384706048
 C         -6.6885489262        2.2607485868        1.8281528514
 C         -5.4052896220        1.9493659905        1.4152064819
 C         -5.2367623304        0.8534374669        0.5823342615
 C         -6.3392162486        0.0465381710        0.2239369878
 C         -7.6184814683        0.3782152151        0.6466976073
 C         -5.8174672359       -1.0522041880       -0.5434704998
 C         -6.4133080910       -2.1436644032       -1.1598044446
 C         -5.6086976472       -3.0407961942       -1.8341760765
 C         -4.2313865719       -2.8525448124       -1.9030956104
 C         -3.6175784271       -1.7713500308       -1.2970921553
 C         -4.4197544598       -0.8756743045       -0.6094327841
 N         -4.0762728394        0.3006698836        0.0520441524
 C         -2.8056128196        0.8336292673        0.1178008368
 C         -2.5674575072        2.2199479530        0.1106260443
 N         -1.3498080257        2.7061757206        0.2327526695
 C         -0.3423750737        1.8516726059        0.3278248555
 C         -0.5539531191        0.4759578099        0.2266824666
 C          0.5535081686       -0.4801354006        0.2222259431
 C          0.3432332847       -1.8572006740        0.3015902860
 N          1.3533725799       -2.7092643916        0.2112365049
 C          2.5713242966       -2.2197192813        0.1076386300
 C          2.8061230481       -0.8331553374        0.1225594543
 N          4.0758172092       -0.2970623628        0.0601469016
 C          5.2370509208       -0.8476613587        0.5905088332
 C          5.4060980152       -1.9388373060        1.4295052535
 C          6.6899681730       -2.2484925699        1.8420604899
 C          7.7856028221       -1.4884298707        1.4454623565
 C          7.6192904467       -0.3740315582        0.6468407132
 C          6.3394047250       -0.0438814954        0.2245246537
 C          5.8166410617        1.0504665849       -0.5486497360
 C          6.4118336696        2.1365114400       -1.1756486824
 C          5.6060574093        3.0293349519       -1.8544532912
 C          4.2280347869        2.8429030573       -1.9163246954
 C          3.6147803792        1.7674036777       -1.2994103632
 C          4.4184474904        0.8751706847       -0.6090307541
 N          1.7863606176        0.0175240944        0.1445327497
 N         -1.7871451445       -0.0187595297        0.1364575322
 H         -8.7709466382        1.7760515625        1.7768682496
 H         -6.8393397349        3.1134686781        2.4732220030
 H         -4.5685186163        2.5363608733        1.7601322708
 H         -8.4613532044       -0.2354754090        0.3677039065
 H         -7.4825332098       -2.2823944640       -1.1110615580
 H         -6.0504204305       -3.8996555535       -2.3169501984
 H         -3.6263171284       -3.5665431370       -2.4414077980
 H         -2.5505063736       -1.6316013649       -1.3525957266
 H         -3.3606580457        2.9376314630       -0.0379952092
 H          0.6466547962        2.2632504142        0.4569106306
 H         -0.6466310402       -2.2718762921        0.4132568041
 H          3.3684095764       -2.9347826264       -0.0317065927
 H          4.5691676256       -2.5230287783        1.7791495072
 H          6.8414166781       -3.0965191257        2.4928803801
 H          8.7726520478       -1.7651732186        1.7841854074
 H          8.4622379581        0.2371330108        0.3623490683
 H          7.4815224817        2.2735912406       -1.1327104935
 H          6.0474228875        3.8825242064       -2.3474008460
 H          3.6219568978        3.5547674477       -2.4566585834
 H          2.5470806364        1.6299522063       -1.3480098541
