91
 energy: -136.075200994682 gnorm: 0.000072184662 xtb: 6.7.1 (edcfbbe)
C           -2.03294344417537        6.48166944428563        0.27458798292225
C           -1.42468976240338        5.59250967170331       -0.82043886044728
C           -1.78095807953795        6.19800221423994       -2.18151811816878
C            0.10591993972336        5.57817231720398       -0.68936994459396
C           -1.94943572577518        4.17475613786773       -0.65393152155379
C           -2.69171120280740        3.51918285667997       -1.63223938922841
C           -3.13899474991013        2.22335016075951       -1.45266561740256
C           -2.85640591394453        1.53880437877883       -0.27323919341975
N           -3.25631590794795        0.20788542366834       -0.09102218808938
C           -2.37353407500096       -0.86081067979847        0.17102049429097
C           -0.97171871452019       -0.83821943472657        0.09075996179575
C           -0.24971062136072       -1.92409341907138        0.67315713158920
C            1.11161664899511       -1.96396745099339        0.66716675692030
C            1.85499487110544       -0.92242123506814        0.07299909288753
N            3.26316618923238       -0.93628928081510        0.09810977625165
C            3.95684507914575       -1.98834208998633       -0.47769271361052
C            3.29349392354835       -3.00440402526198       -1.16892894445290
C            3.99051401967525       -4.06950523922543       -1.70451495236099
C            5.36926990918250       -4.14127674469585       -1.56636012518575
C            6.05244441995695       -3.12008922403759       -0.93317819958610
C            5.36840696868694       -2.02679853588894       -0.40505082450878
N            6.05007035581292       -0.97429024962853        0.17373976383305
C            7.47599632312122       -0.99362239728493        0.21172047564421
C            8.20079994740728       -0.63693528940983       -0.91815038918215
C            9.58420365044270       -0.65821456797165       -0.87728236280228
C           10.24053219444282       -1.03152854891733        0.28446105476477
C            9.51400461667943       -1.38592318705270        1.40975621219986
C            8.13021777753061       -1.36906286166952        1.37786543216759
C            5.36730626257126        0.10178391239746        0.70562295622539
C            6.05281993914764        1.17949127311698        1.26344739929662
C            5.36626278205650        2.22744094436434        1.84697522375098
C            3.98038473349761        2.19981068421964        1.90302020318325
C            3.28318651171663        1.14974816141818        1.33850799585015
C            3.95331837198690        0.10469644125378        0.69887146629442
C            1.16270949743077        0.12531456240525       -0.55995874015944
C           -0.20172588466839        0.16588290040357       -0.56538063268478
N           -3.06122666800500       -1.98139418894131        0.45637228523758
C           -4.35280059818204       -1.67285701844145        0.34750498187049
C           -5.46801140341044       -2.55068833961084        0.50007156735163
C           -5.28014804704934       -3.90952994377109        0.75984012992010
C           -6.35905777639081       -4.75842235387562        0.87378417819907
C           -7.64293371075523       -4.24568956900899        0.71980960983817
C           -7.84157003793949       -2.90549255788183        0.46815393498186
C           -6.76771134696723       -2.00664413798019        0.35819719911123
C           -6.94453279671992       -0.58714552488745        0.13001780237596
C           -8.21540791505958       -0.00497892773772        0.07213441891238
C           -8.40198656381654        1.34785121322183       -0.10048070698450
C           -7.29469420494941        2.19481216271327       -0.20294656308984
C           -6.03170762428994        1.67163426362658       -0.16140361059708
C           -5.80953513545484        0.28309612618395       -0.01833206980395
C           -4.53267442427366       -0.30309018894255        0.02884576982539
C           -2.12234416516507        2.18620739257916        0.71976458800069
C           -1.68277267832676        3.47834899033520        0.52484772141598
H           -1.68337718530476        7.50586560972410        0.16237672270279
H           -1.75761671480354        6.13355063438425        1.26636695708495
H           -3.11897138676926        6.47764939179075        0.20220727524005
H           -2.85889297368106        6.26256741564918       -2.31180226557658
H           -1.35779500741760        5.61114524189641       -2.99375664733684
H           -1.37454688184809        7.20536745312494       -2.24707842107764
H            0.41750913119080        5.21515844642944        0.28596774089858
H            0.54174525561822        4.93198206260600       -1.44894280398995
H            0.50119927995006        6.58307649083023       -0.82173967735105
H           -2.92890391880699        4.00823113734104       -2.56285995514832
H           -3.70484603149061        1.72862321643133       -2.22999596522226
H           -0.82677602263346       -2.70254889813623        1.14639415340865
H            1.63748004568753       -2.77518212155505        1.15041494827931
H            2.22382439372955       -2.94835248037236       -1.28828053505010
H            3.45399530342366       -4.84391865833622       -2.22997086094522
H            5.91520292133741       -4.98067544528744       -1.96710651798842
H            7.12648818993849       -3.16184741170071       -0.84860904218575
H            7.67833164464229       -0.34771756839530       -1.81789699631066
H           10.14901247379038       -0.38106141822808       -1.75443343457969
H           11.31948674072923       -1.04637867006490        0.31258716626001
H           10.02394278118063       -1.67771993024083        2.31533646356675
H            7.55347819346382       -1.64338235168626        2.24860349048570
H            7.13070937719983        1.18765408521982        1.24117416152536
H            5.91406029787976        3.05337409866323        2.27244284836447
H            3.43859347133244        2.99694658829267        2.38748280034751
H            2.20717337539404        1.12875252135373        1.39440025381038
H            1.72719888513786        0.88594046150262       -1.08123287710826
H           -0.69876160232962        0.94497722600192       -1.11917736269592
H           -4.26652671635086       -4.26767584494021        0.86063428689474
H           -6.21249886642983       -5.80955783839249        1.07523127672414
H           -8.49693429530025       -4.90414735914919        0.79788490059990
H           -8.85587496299461       -2.55647099414842        0.35303709987154
H           -9.09184546817133       -0.62582065416559        0.17462885574017
H           -9.40127763712746        1.75625569031127       -0.14063906934030
H           -7.43744567461237        3.26084254667135       -0.30966311831878
H           -5.18252591295303        2.33321099578232       -0.22022470943518
H           -1.90020787782939        1.66077038118278        1.63772775149938
H           -1.12026526584499        3.94955727935843        1.31633566641466
