91
 energy: -136.075159131291 gnorm: 0.000044992480 xtb: 6.7.1 (edcfbbe)
C           -2.68983445819568        6.29647096824669        0.63725251725536
C           -2.05128993720130        5.54105182885695       -0.53805539756980
C           -2.52926178701532        6.19286301449462       -1.83912739871613
C           -0.52179714327561        5.66955603479235       -0.47011327184829
C           -2.42507586466984        4.06955886748897       -0.44717075667851
C           -3.11447493373626        3.39710730307258       -1.45232624943928
C           -3.42220113630090        2.05366826879071       -1.34310634689242
C           -3.04905356652615        1.33643176286456       -0.20927945535115
N           -3.31699376842839       -0.03480410286436       -0.09717770053494
C           -2.33431113216879       -1.03081229122967        0.08154242684971
C           -0.94200955302798       -0.87734505912090       -0.01639579772809
C           -0.11861012015236       -1.93630466996744        0.47452773282765
C            1.24039177697779       -1.85766958209590        0.44876297738765
C            1.88113134653259       -0.71392951698536       -0.07297050812171
N            3.28581866535241       -0.61163858574580       -0.05987814125813
C            4.05297537016247       -1.56353233166488       -0.71151365886122
C            3.46294914159723       -2.56044669182087       -1.49159135602367
C            4.23250782337750       -3.53000384776903       -2.10348191476081
C            5.61212659290430       -3.52191838737690       -1.95518750882120
C            6.22198115337786       -2.51348456989722       -1.23272510688077
C            5.46342700245587       -1.51524150583984       -0.62474795216934
N            6.06834197662507       -0.47287835825094        0.04966233422762
C            7.49148424618835       -0.41491596933646        0.13171771437031
C            8.22686218619683        0.07639277870104       -0.93922688822611
C            9.60707067855991        0.13353982386552       -0.85106731886014
C           10.24968634831539       -0.29635704478187        0.29874557453707
C            9.51267597959046       -0.78701054415637        1.36448603958017
C            8.13212697167889       -0.84862071513680        1.28520412519515
C            5.31083138486908        0.51592716924141        0.64627786933711
C            5.91958454610256        1.59163458135404        1.29056423997881
C            5.16096106512381        2.54972612616376        1.93594691122995
C            3.77934585439664        2.43095938999016        1.96767191379802
C            3.15731188360468        1.38116331047431        1.32043902308664
C            3.89988125265714        0.42893351096399        0.61935838608962
C            1.09038310291376        0.31249975963112       -0.61925069888230
C           -0.27272472477481        0.23465552129815       -0.60588037143690
N           -2.91057412182573       -2.22553689644643        0.30829083448852
C           -4.22687185586699       -2.03134459933074        0.24522987170830
C           -5.25269063100541       -3.01592571527744        0.37009516873379
C           -4.93421681996409       -4.36472054328692        0.53875810776212
C           -5.92769260293096       -5.31460711378367        0.62951029618904
C           -7.25704068547449       -4.91364252876915        0.54535611715133
C           -7.58405063058886       -3.58487832457976        0.38314789936911
C           -6.59982646079058       -2.58625671921365        0.29757374526071
C           -6.91072623415853       -1.17789481006333        0.16187083185202
C           -8.23022802580859       -0.71312527622531        0.17497924628853
C           -8.54450941237867        0.62422143313949        0.08826355925469
C           -7.52260179078278        1.57375064076543       -0.00057276696250
C           -6.21673388797115        1.16778596565756       -0.02596183223531
C           -5.86435486198112       -0.19979408235822        0.03358792764293
C           -4.53856617701289       -0.66739904574619        0.01577338732315
C           -2.36332708122283        1.99795506364391        0.80853767457300
C           -2.06161374478495        3.33745452676507        0.68312887608938
H           -2.44460014686351        7.35483649149843        0.57853256611105
H           -2.33669711852254        5.91754765270205        1.59229459507761
H           -3.77277690458557        6.19102322342526        0.60885413173989
H           -3.61248662981424        6.14491639256822       -1.92609533306328
H           -2.08003558160467        5.71409981991380       -2.70637081341543
H           -2.23834685503141        7.24145576975183       -1.84615212915996
H           -0.13358834326151        5.28320454733516        0.46816709794645
H           -0.06153288733986        5.11288322555321       -1.28428966689049
H           -0.23016549295560        6.71407780610751       -0.55688324887306
H           -3.41881706795157        3.91121378853624       -2.34930183648080
H           -3.94990853709662        1.54776312187681       -2.13990437268315
H           -0.61796713808710       -2.79455928761456        0.89496362465779
H            1.84276732101420       -2.65454133811779        0.86138192081699
H            2.39248232082951       -2.56476830875349       -1.61746797044945
H            3.75228117940654       -4.29169382137201       -2.69747240460025
H            6.21520618578591       -4.28772384293807       -2.41688292778573
H            7.29591298148366       -2.49108404025211       -1.13977866606940
H            7.71530957034475        0.40872432210869       -1.83027558614830
H           10.18025879017678        0.51682578066489       -1.68155776380596
H           11.32610171621059       -0.24905474446755        0.36401683014452
H           10.01179301901663       -1.12357807882819        2.26053226604608
H            7.54712559171167       -1.22847827456933        2.10949796789778
H            6.99496083069183        1.66875099028244        1.28672765259658
H            5.64993885874791        3.37577874230741        2.42778787451703
H            3.18192925115513        3.15525338967986        2.49880945848512
H            2.08443818514492        1.28821994423540        1.35914261520145
H            1.57777441377294        1.15458650052097       -1.09079983153632
H           -0.84459108087786        1.00671885315168       -1.09354506116512
H           -3.88951931316982       -4.63307777946050        0.58898246290377
H           -5.68035093103272       -6.35809185661103        0.75965181050533
H           -8.04520266347465       -5.65116985884467        0.60729048359515
H           -8.62908185557738       -3.32453961428622        0.31955164818384
H           -9.04272647807539       -1.41708733899507        0.26654587084866
H           -9.57750721386351        0.94001261703779        0.10214015402955
H           -7.76457887121728        2.62633053252290       -0.04308847262245
H           -5.43410720691654        1.90764673898834       -0.07410906918942
H           -2.07010924665976        1.44703734270019        1.69090554358887
H           -1.53143808876058        3.81764314353120        1.49136919399532
