91
 energy: -136.152714170324 gnorm: 0.000143125941 xtb: 6.7.1 (edcfbbe)
C           -2.21775275131006        5.56027474371139       -1.81872781972845
C           -1.83638848577319        4.92761472211857       -0.47703993082662
C           -0.31161562984471        5.02222632524375       -0.31762875342096
C           -2.52733827228330        5.72090623861264        0.64244354387600
C           -2.25378803959134        3.46892548407906       -0.37645060610150
C           -2.93306672772535        2.80503962460093       -1.39293707588792
C           -3.29398066513697        1.47507888391890       -1.26929979551659
C           -2.98519164207594        0.77526538630194       -0.11009995682521
N           -3.31251182130921       -0.59348412367742        0.01483480921820
C           -2.39222824747578       -1.61255155847493        0.09673548933115
C           -0.95071947529098       -1.43065562988856        0.03748452301424
C           -0.14707018198791       -2.25324964141001        0.82914949241010
C            1.22490641800992       -2.11615812613110        0.81995700729450
C            1.82744913216335       -1.16035018586411        0.00473613141092
N            3.23279348544674       -1.01033105498454       -0.00074519254141
C            4.03659927249906       -2.04520106715354       -0.48621539474238
C            3.48173364572217       -3.19072151903031       -1.03660547711835
C            4.28567972062459       -4.22848733937391       -1.49227509273239
C            5.65618105557290       -4.12506026742228       -1.40051495104116
C            6.22742244143919       -2.96880022292139       -0.88452048351231
C            5.43725277645604       -1.91548464096316       -0.44799084945041
N            6.00820588587753       -0.73992159229005        0.03344094930004
C            7.42199071446815       -0.60227600992309        0.05336335242773
C            8.11694370802007       -0.37947960034779       -1.12973242399525
C            9.49438227974217       -0.24956291694191       -1.10631135096805
C           10.18146819544623       -0.33494116174846        0.09375651896650
C            9.48906903819485       -0.55414674822826        1.27354330527018
C            8.11207565850120       -0.69038192421812        1.25671833008555
C            5.20835641316136        0.30966774535669        0.47793743227767
C            5.77085174195276        1.50071257397730        0.91325292715281
C            4.97605906471807        2.53270102673785        1.39527362013799
C            3.60929142250982        2.37309930349263        1.45163221273054
C            3.03016623883578        1.19521902166255        0.99508926146477
C            3.80795911670906        0.16819297309540        0.48142394040113
C            1.03221889793798       -0.36010255418503       -0.81037937704330
C           -0.34175221023872       -0.49246691530501       -0.79507686768645
N           -2.96249658393917       -2.78509902929510        0.24109786513541
C           -4.30130604091360       -2.54824007857397        0.25238808781326
C           -5.35441021191943       -3.49962993917018        0.35833931638087
C           -5.08861498959432       -4.87047096132641        0.45096871850360
C           -6.11867415825117       -5.77439358196145        0.52988565025181
C           -7.43431943842996       -5.31456962856960        0.51495077927706
C           -7.70744004153005       -3.96908017242912        0.42931512927072
C           -6.68215573319840       -3.01320551722249        0.35212750634734
C           -6.93873056326055       -1.58420116943904        0.28535729352677
C           -8.24202173306698       -1.06827262802948        0.33687714167544
C           -8.49450532210608        0.28306946362419        0.30909666834806
C           -7.44036654797169        1.18883769309921        0.24158826493216
C           -6.14905157010786        0.72513958562348        0.18368339396192
C           -5.87082046095927       -0.64956953750097        0.18690801348135
C           -4.55161516484117       -1.18220912840326        0.12748799992910
C           -2.30840037960332        1.42047326200293        0.91672041405823
C           -1.95291369919209        2.74748341604602        0.77746674979217
H           -1.89156642709986        6.59817497818548       -1.83342529246194
H           -3.29503979188174        5.54685688908856       -1.96767423168684
H           -1.73430207078708        5.04578349729693       -2.64607829697011
H            0.18664877533284        4.42556274253522       -1.07928670036931
H            0.00859366313504        4.66596137624809        0.65717261649886
H            0.01022130631968        6.05583743224949       -0.42373669907420
H           -3.60881744594019        5.64512276132309        0.54705682010199
H           -2.24508996379222        5.35081830112067        1.62419820676381
H           -2.24881379321413        6.77063436010844        0.58115711235259
H           -3.19063997550324        3.31429689391599       -2.30649888047494
H           -3.81850263621940        0.97371763323323       -2.07062287251107
H           -0.62242004986282       -2.99164856605963        1.45621830043644
H            1.84140527907672       -2.74628953516787        1.44399859699479
H            2.40936809788141       -3.28043880132245       -1.11332547527914
H            3.82521297822615       -5.11039730195387       -1.91107386432190
H            6.29401313022159       -4.92979536752512       -1.73326558470917
H            7.30156161820682       -2.88777507311599       -0.82302430387160
H            7.57173175891578       -0.31356248607132       -2.06008531347414
H           10.03150302208083       -0.07725982711723       -2.02732218516702
H           11.25619907732693       -0.23131224439628        0.10937964923253
H           10.02238081157210       -0.62270216349952        2.21019149613673
H            7.56318816259112       -0.86211339458427        2.17120444110146
H            6.84212514672652        1.62460859482562        0.87992431283246
H            5.43958214056157        3.44822368677719        1.73012478812754
H            2.98008846529279        3.15609861661588        1.84600030793659
H            1.95868750552008        1.07940795773562        1.04419707451086
H            1.49992238132196        0.36471618862810       -1.46030141815844
H           -0.93739777422597        0.12125379306604       -1.45255369017553
H           -4.05601842729725       -5.18514501045315        0.45268275838319
H           -5.91585161923305       -6.83311775592737        0.59942670533332
H           -8.24927888945324       -6.02198476772507        0.57141202815138
H           -8.74082756656957       -3.66095511172536        0.41923736984616
H           -9.08167998683507       -1.74055588135729        0.40723821478102
H           -9.51276914327122        0.64130187203035        0.34995632734167
H           -7.63504987209003        2.25123671451570        0.23863569456411
H           -5.33346096413004        1.42921607459177        0.14614543499133
H           -2.06327824437667        0.87682196063876        1.81773313117120
H           -1.42943721360283        3.22222966236415        1.59250198077920
