  91
       -136.09912312
 C         -1.0068639007        5.9434846962        0.6361604896
 C         -0.7780070108        5.0871913166       -0.6170131565
 C         -1.2326093706        5.8950759758       -1.8353464013
 C          0.7178694489        4.7776379427       -0.7722463326
 C         -1.5247192944        3.7720142468       -0.4730416472
 C         -2.4602025862        3.3274437423       -1.4005513397
 C         -3.0795688335        2.0977192806       -1.2663555382
 C         -2.7845127522        1.2850491188       -0.1798253783
 N         -3.3215628259       -0.0118059292       -0.0769079014
 C         -2.5499744815       -1.1538189307       -0.0650767840
 C         -1.0976685618       -1.1278342905       -0.1478951098
 C         -0.3587546149       -1.9786444911        0.6731044495
 C          1.0189177546       -1.9101735213        0.6931915637
 C          1.6844677592       -0.9942688598       -0.1170799683
 N          3.0889074129       -0.8663942111       -0.0528879275
 C          3.9035268649       -1.9150833536       -0.4801657978
 C          3.3610263756       -3.0641761195       -1.0349031229
 C          4.1741376667       -4.1171291379       -1.4335491509
 C          5.5392681838       -4.0261192369       -1.2757867805
 C          6.0987390662       -2.8682745378       -0.7511146368
 C          5.3011438970       -1.7982239979       -0.3742537185
 N          5.8580234250       -0.6198501404        0.1198842174
 C          7.2662470518       -0.5006324799        0.2227455189
 C          8.0422688817       -0.3812550172       -0.9247319394
 C          9.4171590838       -0.2726219575       -0.8200413662
 C         10.0230570086       -0.2757954298        0.4256157603
 C          9.2509281663       -0.3901597420        1.5698766426
 C          7.8760829177       -0.5054949936        1.4721981365
 C          5.0464647363        0.4400528555        0.5149055384
 C          5.5943348768        1.6328329506        0.9635917700
 C          4.7839066983        2.6741389967        1.3962702330
 C          3.4152885795        2.5244988279        1.3851477739
 C          2.8501135669        1.3486110450        0.9078276338
 C          3.6465025163        0.3105081267        0.4466657169
 C          0.9529361961       -0.1917357933       -0.9873569279
 C         -0.4240854683       -0.2586088271       -1.0056711502
 N         -3.2722912694       -2.2387953856        0.0490292655
 C         -4.5648277874       -1.8196226292        0.1071848575
 C         -5.7382838948       -2.6182863327        0.2018287157
 C         -5.6634796265       -4.0147041807        0.2389140577
 C         -6.8080382223       -4.7688932233        0.3062754135
 C         -8.0468897882       -4.1312939742        0.3330014249
 C         -8.1319724778       -2.7590214524        0.3015287235
 C         -6.9849528035       -1.9525424763        0.2416796912
 C         -7.0412433723       -0.5008921512        0.2414465158
 C         -8.2576377820        0.1891457104        0.3435249652
 C         -8.3165881900        1.5619482503        0.3866238353
 C         -7.1461750928        2.3131946342        0.3472113496
 C         -5.9342167008        1.6771782038        0.2395925267
 C         -5.8551268696        0.2793125543        0.1637677211
 C         -4.6261344374       -0.4278011472        0.0431627912
 C         -1.8730205827        1.7259114133        0.7721347717
 C         -1.2534131090        2.9488081580        0.6177216649
 H         -0.5002244915        6.9000722010        0.5306650971
 H         -0.6250576273        5.4558828518        1.5283655496
 H         -2.0695567960        6.1300033967        0.7764689401
 H         -2.2905170286        6.1388501189       -1.7705640256
 H         -1.0462072978        5.3517921866       -2.7586764860
 H         -0.6748279506        6.8280174887       -1.8791404279
 H          1.1008031613        4.2301981160        0.0836099327
 H          0.8873560147        4.1739681776       -1.6614417227
 H          1.2837642120        5.7012521249       -0.8700618274
 H         -2.7124223951        3.9287531513       -2.2579773263
 H         -3.7874697014        1.7593213721       -2.0093967497
 H         -0.8858229571       -2.6726976977        1.3088722821
 H          1.5900875845       -2.5517086239        1.3476933272
 H          2.2926472343       -3.1413820349       -1.1603802540
 H          3.7256185360       -5.0007400357       -1.8601131328
 H          6.1829401095       -4.8432760383       -1.5619310597
 H          7.1691210767       -2.8009024016       -0.6356299902
 H          7.5600566668       -0.3782944714       -1.8914366317
 H         10.0162843591       -0.1803558000       -1.7135618776
 H         11.0961906273       -0.1893071291        0.5045275075
 H          9.7207602723       -0.3951523056        2.5421647737
 H          7.2654130301       -0.5978010918        2.3584207455
 H          6.6661791514        1.7523583299        0.9794692232
 H          5.2361012733        3.5897532870        1.7446988610
 H          2.7749360057        3.3162450063        1.7436969399
 H          1.7770662578        1.2418393779        0.8992347614
 H          1.4746415114        0.4925582715       -1.6398188961
 H         -0.9744330174        0.3593543894       -1.6973678420
 H         -4.6847349828       -4.4676196880        0.2082902374
 H         -6.7548592781       -5.8470654683        0.3352060283
 H         -8.9512044626       -4.7206218446        0.3803564949
 H         -9.1125020155       -2.3105716110        0.3222668601
 H         -9.1830478898       -0.3607287800        0.3988470852
 H         -9.2729136685        2.0577674917        0.4645912976
 H         -7.1895234974        3.3908170080        0.4042366812
 H         -5.0274080607        2.2603447360        0.2269661024
 H         -1.6431972694        1.0979754078        1.6202179412
 H         -0.5381251065        3.2571635853        1.3636796775
