70
 energy: -112.096500469915 gnorm: 0.000084708819 xtb: 6.7.1 (edcfbbe)
C           -7.31484152265665       -1.01623863956980       -1.62273395432983
C           -5.92109521519783       -0.68087053819266       -1.08974541600051
C           -4.88321294582930       -1.36177398042288       -2.00759183750964
C           -5.65656849269622        0.81374637800511       -1.06316208701954
C           -6.42376929784753        1.76122618675742       -1.72234361656994
C           -6.11891957423003        3.11050332673278       -1.63569031050907
C           -5.04933671217855        3.53904611298574       -0.86689317326665
C           -4.26658714683072        2.61373397196822       -0.20365030772744
C           -4.55100317210334        1.25624408953348       -0.32446785108824
N           -3.80098665633624        0.29149514856311        0.37278024947949
C           -2.43110926500382        0.20548395502484        0.30301247386212
C           -1.69453302022682        1.08147557278815       -0.51496158882431
C           -0.32424981336312        1.00117931784296       -0.58105028443958
C            0.37617589829341        0.03168505550373        0.13821075526918
C            1.84270291124195       -0.02222588300932        0.08811446905292
C            2.58171427926343        1.13946434763238        0.35254347032789
C            1.93153226646758        2.26207587807512        0.85525837166998
N            1.35784373575041        3.15485352634292        1.31470862810432
C            4.01913525863605        1.06484853275015        0.20930385533267
C            4.89494746589886        2.21658677333403        0.29124250382130
C            6.24921724618692        2.05860806758962        0.62660521196235
C            7.07761023942538        3.16002218326441        0.66411456991790
C            6.53858949504063        4.40540830498714        0.36144195061175
N            5.26886097565733        4.56338758092154        0.02377381218480
C            4.47224288165767        3.51869221069664       -0.01434271471162
N            4.59164212400395       -0.09591650963335       -0.00677055970884
C            3.94527957542077       -1.23712034556054       -0.18313698186253
C            4.74860206125248       -2.41946876025495       -0.32716136114197
C            4.28420599822486       -3.74312358634663       -0.22593651227845
C            5.16768103421582       -4.79440992286421       -0.35781694053114
C            6.51149468336676       -4.52284078964118       -0.58876562594416
N            6.95643166039049       -3.27699989320157       -0.67433761955062
C            6.13622003110629       -2.27245605361925       -0.55002930116564
C            2.49326799077942       -1.22058348160803       -0.22644981885723
C            1.73179406787475       -2.29444774228515       -0.67716109484032
N            1.05890035862678       -3.14205230918613       -1.08604627515255
C           -0.35502443720358       -0.89076719896434        0.88696146277493
C           -1.72606915680785       -0.81614146152401        0.96337591890058
C           -4.61441961937536       -0.64681632927860        1.03533691130480
C           -4.40135901972874       -0.97557757439810        2.37094165292421
C           -5.23919606013038       -1.87817716520152        2.99765659619978
C           -6.29487953034454       -2.43789542624301        2.29762734779196
C           -6.53646619802489       -2.06930092663141        0.98374456953544
C           -5.71451723723534       -1.16116210968871        0.33526774216758
H           -7.45892632350270       -2.09299634052061       -1.63878380614889
H           -7.41717034391521       -0.66371977143563       -2.64536512282054
H           -8.08808683235310       -0.56108597231262       -1.00850948720653
H           -3.86341618113928       -1.16738567222502       -1.68600860911745
H           -4.99583133434510       -0.99578591928072       -3.02555014770538
H           -5.04049621585356       -2.43790487455172       -2.00493705940009
H           -7.27337569476405        1.45769133590055       -2.31066399963144
H           -6.73136767505136        3.83035632107278       -2.15680420386166
H           -4.83017952560040        4.59134447814777       -0.77143959820676
H           -3.45513385881211        2.93623904148187        0.43144119201205
H           -2.20074535154603        1.81313989578670       -1.12275446911473
H            0.21623106334018        1.68537155019317       -1.21852675151581
H            6.61819541121220        1.07145206337524        0.86195393730972
H            8.11964092000590        3.06364995991668        0.92655599701333
H            7.13542412035200        5.30655215386438        0.38274207029414
H            3.45507623527261        3.72056878490098       -0.32117754217908
H            3.24143867690384       -3.94120388844763       -0.03267191203258
H            4.82572909125735       -5.81468423541167       -0.27998002986091
H            7.24664489002327       -5.30534045735859       -0.70431858649976
H            6.55022004506065       -1.27592589214217       -0.62954199199412
H            0.16268828308329       -1.67205588387462        1.42354450507060
H           -2.25411165690887       -1.57053324108383        1.52197546286137
H           -3.60588494871108       -0.49553594751158        2.92051504164251
H           -5.07380043476363       -2.13224113605730        4.03335518139461
H           -6.94828054054408       -3.14722730643308        2.78211205984746
H           -7.38065090593092       -2.49859734264252        0.47076984318200
