70
 energy: -112.163425177066 gnorm: 0.000129882901 xtb: 6.7.1 (edcfbbe)
C           -7.21540607040542       -0.99423328615344       -1.72406638851959
C           -5.84840480652852       -0.64488965964829       -1.13510046371990
C           -4.76553961361529       -1.25778499352304       -2.04714390023057
C           -5.62652281190818        0.85545491240502       -1.03316104583445
C           -6.41821444271636        1.81024888870354       -1.65317650811032
C           -6.16173080987046        3.16187676990702       -1.49074950554933
C           -5.12365187921532        3.58250903457387       -0.67829369219914
C           -4.32594140853797        2.64755420074581       -0.04416291195672
C           -4.55634247605674        1.29258652434816       -0.24603335721445
N           -3.78731088444871        0.31296356274281        0.42216839416038
C           -2.42306662238227        0.22689578250021        0.33052890915264
C           -1.67902404065265        1.17075401997017       -0.39809329414444
C           -0.31040329854780        1.09303351818183       -0.47184842250432
C            0.39052488436236        0.04769980690526        0.13720994349568
C            1.84142817520502       -0.01532816840497        0.07446468328910
C            2.62663316555703        1.13734246411591        0.27383561115618
C            2.03325937277825        2.33399027038616        0.72380179831163
N            1.57376912427070        3.28871153237218        1.16802753414522
C            4.02654149559305        1.04570861483047        0.14459838366318
C            4.89703753243377        2.22159813691485        0.20027939595992
C            6.15197207320488        2.14421112158278        0.80549997102335
C            6.95643267620940        3.26851811114168        0.82551666844412
C            6.47884716938460        4.43061242152589        0.23476861774711
N            5.30729854710955        4.50377114145327       -0.37628084172557
C            4.54117818054803        3.43207356577787       -0.39872878178783
N            4.63395265081854       -0.11928660770279       -0.02312464293506
C            3.93156699139834       -1.23540924491858       -0.14992905588386
C            4.71051860899990       -2.46728876798515       -0.29142230042650
C            4.31497518978068       -3.68230287798578        0.26556034763439
C            5.11985419063204       -4.79355015823981        0.08387657052178
C            6.30066863144138       -4.64638067554517       -0.62982407493046
N            6.69289895063947       -3.49437531442458       -1.15181650479507
C            5.92268014178002       -2.43927825813683       -0.98864685657109
C            2.52240374891457       -1.22203741335285       -0.18206448159612
C            1.81001453013206       -2.37080477533662       -0.57996317288956
N            1.25091464981639       -3.29400819757791       -0.97436486798006
C           -0.35177156723336       -0.93745744269115        0.79424594294947
C           -1.71896625529310       -0.85118797804431        0.89323068458022
C           -4.59791316697596       -0.67880636984608        1.01973099917349
C           -4.40597398452825       -1.06218599562243        2.34105550601807
C           -5.24317442104137       -2.00234049733266        2.91324299980197
C           -6.28342849187089       -2.53654105537578        2.17347101185551
C           -6.50294364389517       -2.11555004010005        0.87222139711921
C           -5.67023333800559       -1.18067896080661        0.27586528566182
H           -7.32983396497727       -2.07327656781914       -1.78723202324409
H           -7.29817308164922       -0.60179718401999       -2.73430537599071
H           -8.01929212722370       -0.58559268964382       -1.11598716498799
H           -3.76240699635170       -1.04553375867806       -1.68744605915210
H           -4.85951506977748       -0.85490453449414       -3.05342051595923
H           -4.88924612404111       -2.33787693168538       -2.09043131298348
H           -7.24707143752376        1.51039808265813       -2.27294801202565
H           -6.78637178434159        3.88792426057082       -1.98930515818462
H           -4.93954066325169        4.63546315978073       -0.52624496772123
H           -3.53565422821348        2.96392611471814        0.62045150785112
H           -2.18335543130007        1.95979797796735       -0.93148180717315
H            0.22602496601883        1.83036970349262       -1.05180329503214
H            6.46708444344381        1.21401014270385        1.25410522662765
H            7.92872722786726        3.24694333009274        1.29132615059490
H            7.05771225178738        5.34448183176656        0.23765664120168
H            3.60824243384263        3.53719154357926       -0.93822040275627
H            3.40847742266168       -3.75212858360601        0.84914886336939
H            4.84302151125097       -5.74869255204642        0.50062540541347
H            6.97059525355310       -5.48089447607298       -0.78791932332467
H            6.26807796639684       -1.51613269179914       -1.43433574465826
H            0.15569339706328       -1.76644541832942        1.26596193478538
H           -2.25269032278207       -1.64079646115263        1.39594284911784
H           -3.61459110977871       -0.60960414550206        2.92006269126548
H           -5.08894214258656       -2.30512179163655        3.93812750519700
H           -6.93915465374280       -3.27198181826843        2.61509395509387
H           -7.33539675572909       -2.52878372845677        0.32693850786085
