70
 energy: -112.103768019176 gnorm: 0.000062463860 xtb: 6.7.1 (edcfbbe)
C           -7.60477293404389       -0.34585396849895       -1.21269737926194
C           -6.71686914296865       -0.01054151709054        0.00331873414379
C           -7.59765214159480        0.33082270899895        1.22284748542471
C           -5.87630705822798       -1.22200776047321        0.33783469406450
C           -6.49341781120245       -2.42021345622458        0.67166977441026
C           -5.76653936260986       -3.55225237567938        0.99251748992343
C           -4.37864862814055       -3.50126403142131        0.99274839397003
C           -3.73696998138841       -2.32877818281555        0.66722434100755
C           -4.47058285703681       -1.18001757580430        0.32809850076984
N           -3.80421594280372       -0.02022721912170       -0.00161438317418
C           -2.37823381354750       -0.02467327369030       -0.00342655810461
C           -1.68985398837564       -0.51391882415758       -1.10625046766502
C           -0.30848498788431       -0.51942085078462       -1.10386788389317
C            0.39442864357153       -0.03029994353472       -0.00801663552953
C            1.87140377521727       -0.02437427870871       -0.01117350884393
C            2.54910811054305        1.19852448173130        0.03587759660440
C            1.80921368357619        2.37230954172278       -0.06768869466491
N            1.13702915268504        3.30483618253842       -0.19394094825944
C            3.99401001201557        1.15401672245509        0.08500874552809
C            4.83071752808813        2.32868776390115        0.23359178151435
C            6.16323627416963        2.30924267375730       -0.20834268317523
C            6.95689061252595        3.42316855279709       -0.03454327220892
C            6.40456644493521        4.54083703812202        0.58051568170851
N            5.15567697262041        4.56575939776881        1.01882298465411
C            4.39374620909593        3.50591000748499        0.85779461182123
N            4.61344114018594        0.00127830227684       -0.01048928303276
C            4.01803374963292       -1.17811781758196       -0.10529479265881
C            4.87572552282322       -2.32359992904980       -0.23269998123977
C            4.46465624449136       -3.61909639647118       -0.59396214274785
C            5.39503384624218       -4.63310932452846       -0.69340932037856
C            6.73144785569671       -4.35169255375467       -0.43514972990797
N            7.12841226561903       -3.12979985437581       -0.10556622760413
C            6.26128174781466       -2.16134638913084       -0.00795567165697
C            2.56770505321173       -1.23375322603054       -0.05729746890706
C            1.82239837791640       -2.40596591350486        0.03119248190109
N            1.13307786875278       -3.32924011844790        0.13677718849377
C           -0.30304999910196        0.46168938985716        1.09009459001296
C           -1.68432608030206        0.46133663641814        1.09744384733010
C           -4.46387779034221        1.14415484185269       -0.32889670223852
C           -3.72377310534310        2.28815871785261       -0.67011370130704
C           -4.35877261357335        3.46480874898848       -0.99369083289464
C           -5.74632867577484        3.52472943119322       -0.98932989837793
C           -6.47965241352941        2.39746421547596       -0.66625122404633
C           -5.86938023379628        1.19527286814755       -0.33426119075968
H           -8.23262505730646        0.50006687755110       -1.47439607119366
H           -8.24695052345528       -1.19386342969063       -0.99650541524847
H           -6.98328740287156       -0.59328376614663       -2.07097947394026
H           -8.22948793640782       -0.51112923035215        1.48778388016380
H           -8.23552912442819        1.18260728201995        1.00879446232505
H           -6.97108416159808        0.57516832794936        2.07829951319138
H           -7.57007833187583       -2.47770905390442        0.68352630639694
H           -6.27702830432317       -4.46865878164969        1.24519332607472
H           -3.79734151052003       -4.37392864134456        1.24732020896186
H           -2.65920353337117       -2.29231841161102        0.67284316407582
H           -2.23568228720562       -0.88838280151019       -1.95888496626989
H            0.23019131672758       -0.89579882966259       -1.96090187914423
H            6.54232702342644        1.41948684092419       -0.68874781324425
H            7.98189317872501        3.43399383318971       -0.37132234933640
H            6.97450189571431        5.44661657802043        0.73488825455337
H            3.39381202567464        3.58874783168544        1.26129843618941
H            3.42632807306778       -3.82231582341687       -0.80417361742792
H            5.09373405791112       -5.63144142475827       -0.97048286795182
H            7.50142533786801       -5.10675034311003       -0.49399780154192
H            6.63526333834480       -1.18408973627981        0.26760873348701
H            0.24017776183914        0.83782438981680        1.94438411841624
H           -2.22565244107394        0.83906424081783        1.95149063340529
H           -2.64625494680389        2.24534991114345       -0.67866966831126
H           -3.77235762011609        4.33363571442401       -1.24960869569129
H           -6.25154729591730        4.44447756407887       -1.24039950476983
H           -7.55594011505750        2.46213416353048       -0.67465311747945
