70
 energy: -112.161979152559 gnorm: 0.000198631442 xtb: 6.7.1 (edcfbbe)
C           -6.97660916568587        0.08344701929903       -1.27981936017049
C           -6.09178487009009        0.00697032032954       -0.02111057622886
C           -6.96886561929329       -0.06987344976309        1.24299510077910
C           -5.24208740550506       -1.24674828006960       -0.10576322406284
C           -5.86545242352182       -2.48497187120258       -0.19331269896691
C           -5.15070524016728       -3.66203842627497       -0.31433396683545
C           -3.76994238995662       -3.60831759378079       -0.37700690489804
C           -3.12538556159007       -2.39191387683561       -0.28998878255413
C           -3.84418239936541       -1.20364615074642       -0.12540678856836
N           -3.16623673987155        0.00707127449880       -0.02206572648653
C           -1.75285383715858        0.00461045925918       -0.01141473888213
C           -1.04096420659735        0.54245668536193       -1.08069818735928
C            0.33863737630827        0.54982422393384       -1.06467945315196
C            1.03168844629105       -0.00145465314009        0.01124532129594
C            2.49897383756380       -0.01190146649752        0.02661676809395
C            3.23926074967739        1.16562527450232       -0.15874688507773
C            2.56966760153903        2.39199431686078       -0.35496963292079
N            2.02345559800444        3.38907407990784       -0.51525754342806
C            4.64830614719057        1.09108795700676       -0.16424456470434
C            5.49459336372464        2.26954133936294       -0.37342433176673
C            5.25834994847441        3.49139321828566        0.25381642328865
C            6.11396671174061        4.54902076432794       -0.00208409300523
C            7.18147322145557        4.34432340804305       -0.86457954930899
N            7.41952039962004        3.18527004069611       -1.45822982349532
C            6.60444545336271        2.17998073364319       -1.21898610080974
N            5.28422934295893       -0.05760756504871        0.00245859856242
C            4.61459949297416       -1.18000319207704        0.21825670988163
C            5.42293272528790       -2.37782400562123        0.45197569813303
C            6.61190769593559       -2.57711409768096       -0.25120654180403
C            7.35960936524481       -3.71161633213325        0.00374646196576
C            6.89270069282772       -4.60769600630479        0.95618961850822
N            5.78789695424486       -4.40832813229267        1.65632750331157
C            5.07651988916531       -3.32568327025360        1.41812994379024
C            3.20440954718480       -1.20840923239178        0.22546023940843
C            2.49534277306098       -2.42729776682769        0.28961305451828
N            1.90918025277368       -3.41415555474883        0.27731181167798
C            0.31810961128847       -0.55145748283947        1.07486990126387
C           -1.06122431427383       -0.53760545214787        1.06903400622651
C           -3.84382084015893        1.21806960750429        0.07689204334352
C           -3.12550191123382        2.40742762540966        0.23583393772650
C           -3.77031392356414        3.62391075221843        0.31962936206302
C           -5.15116428976123        3.67698877293637        0.25973518454920
C           -5.86550663557311        2.49914963105690        0.14371410135390
C           -5.24190024810880        1.26092393086372        0.05847573638315
H           -7.60948236686984        0.96606921477927       -1.25589384620573
H           -7.61601112311857       -0.79126119268888       -1.35813542830727
H           -6.35185770091585        0.13262541763149       -2.17016419633555
H           -7.60296396888008       -0.95170487864774        1.22148177298065
H           -7.60645342302842        0.80573042123044        1.32644890630738
H           -6.33874788068436       -0.12136853120023        2.12940938446530
H           -6.94322298327054       -2.53762582759853       -0.16934348805159
H           -5.66753813290736       -4.60802433860433       -0.37407887005424
H           -3.18846596850871       -4.51052027007159       -0.49710154976790
H           -2.04857642913897       -2.36556740785598       -0.35669288002117
H           -1.57649921580541        0.95529247972516       -1.92207474776365
H            0.88245983462486        0.95599613799102       -1.90483104943900
H            4.43813123208975        3.60500500957651        0.94746557655876
H            5.96143371511796        5.50702180542255        0.46847958375470
H            7.88426824431026        5.13569838887585       -1.08798807420737
H            6.82586590435694        1.25242710381306       -1.72906280118384
H            6.92130696434274       -1.85140815388732       -0.98775212634855
H            8.27905681875007       -3.90127514337438       -0.52653902085634
H            7.42577055159495       -5.52174957183766        1.18076666669107
H            4.20213441615158       -3.19617248245864        2.04322169675855
H            0.84643658269415       -0.96342110460821        1.92223218936175
H           -1.61280185690356       -0.95081121978410        1.89981234620978
H           -2.04859388443226        2.38140692971803        0.30027119511107
H           -3.18920116563904        4.52700890100817        0.43506185723735
H           -5.66836996186425        4.62288470967213        0.31771088512836
H           -6.94335237847267        2.55125002652529        0.12229796632033
