  70
       -112.11512621
 C         -7.1395818735       -1.0762954239       -1.7550721970
 C         -5.8006928271       -0.6848968872       -1.1316863910
 C         -4.6746183427       -1.2885695758       -1.9953617630
 C         -5.6113516677        0.8200400769       -1.0557372209
 C         -6.4038446441        1.7471693610       -1.7137386645
 C         -6.1654507249        3.1054428529       -1.5833072722
 C         -5.1458131808        3.5591428698       -0.7658372498
 C         -4.3515134925        2.6514341619       -0.0900943726
 C         -4.5638724050        1.2887671259       -0.2565692188
 N         -3.8004842269        0.3402840854        0.4545765003
 C         -2.4310763157        0.2648444891        0.3812963372
 C         -1.6903222974        1.1987352082       -0.3592037056
 C         -0.3203740221        1.1237705989       -0.4277888098
 C          0.3782601090        0.0915464203        0.2007799268
 C          1.8309691070        0.0197538779        0.1258531568
 C          2.6242228167        1.1650994323        0.3204497660
 C          2.0301199422        2.3634312457        0.7682944368
 N          1.5555191967        3.3150863882        1.2011511797
 C          4.0219292498        1.0614321029        0.1758570748
 C          4.9088477080        2.2237017154        0.2368770355
 C          6.1852736954        2.1031826468        0.7879207843
 C          7.0120137098        3.2103433205        0.8124074903
 C          6.5334360894        4.4008393724        0.2821917427
 N          5.3400441340        4.5162276223       -0.2751972833
 C          4.5524274615        3.4611418662       -0.3038155105
 N          4.6151610390       -0.1069199928       -0.0173535963
 C          3.9025902236       -1.2148616381       -0.1479006314
 C          4.6663588246       -2.4492615931       -0.3364467921
 C          4.2684914113       -3.6763483455        0.1906685352
 C          5.0542466929       -4.7904491645       -0.0456251726
 C          6.2183755978       -4.6351025133       -0.7842489596
 N          6.6128541395       -3.4723420120       -1.2768554814
 C          5.8618776099       -2.4137432120       -1.0613757579
 C          2.4928141820       -1.1908996988       -0.1476615243
 C          1.7540274097       -2.3310492127       -0.5248377240
 N          1.1647301383       -3.2453524081       -0.8938573640
 C         -0.3594383885       -0.8792875379        0.8794167773
 C         -1.7280760735       -0.7958932004        0.9722629940
 C         -4.6035986374       -0.6549861780        1.0484029756
 C         -4.4300864646       -1.0184292118        2.3778604214
 C         -5.2629703931       -1.9631317571        2.9480117033
 C         -6.2826952061       -2.5222671563        2.1987971403
 C         -6.4832856054       -2.1251730685        0.8871414753
 C         -5.6521901847       -1.1887686969        0.2929451880
 H         -7.2284645092       -2.1588338549       -1.8009894074
 H         -7.2004912965       -0.7039948903       -2.7746093065
 H         -7.9712174733       -0.6753114339       -1.1799701643
 H         -3.6916853090       -1.0524023687       -1.5999341883
 H         -4.7387347133       -0.8991590012       -3.0093078326
 H         -4.7772324422       -2.3710903536       -2.0302336318
 H         -7.2182096416        1.4210871660       -2.3399238588
 H         -6.7891775886        3.8099754725       -2.1120283213
 H         -4.9751259875        4.6175287153       -0.6414081771
 H         -3.5783277779        2.9940576534        0.5809915899
 H         -2.1962714888        1.9759144098       -0.9068917001
 H          0.2158254632        1.8532965944       -1.0161902722
 H          6.4990614644        1.1515131482        1.1908832342
 H          8.0023361380        3.1546857269        1.2361605379
 H          7.1299904282        5.3030110638        0.2925222856
 H          3.6016136327        3.6030370959       -0.8006510391
 H          3.3747879231       -3.7542794371        0.7928168561
 H          4.7743051227       -5.7551629347        0.3468228161
 H          6.8717331363       -5.4730798856       -0.9861831635
 H          6.2092912629       -1.4809936052       -1.4846475599
 H          0.1490746455       -1.6976114090        1.3668481421
 H         -2.2617668886       -1.5767653596        1.4872924699
 H         -3.6563739713       -0.5456178792        2.9641766966
 H         -5.1222018945       -2.2501121246        3.9789434426
 H         -6.9355096587       -3.2603134752        2.6392108974
 H         -7.2986058913       -2.5596080335        0.3321317309
