71
 energy: -107.093070955392 gnorm: 0.000067484860 xtb: 6.7.1 (edcfbbe)
C            3.16343298411295        3.96732179882195       -1.63582417187404
C            4.29666164154276        3.21922437785198       -1.90717646100878
C            4.51297753923119        2.02177639807815       -1.25229644195879
C            3.58677669462558        1.56450433070695       -0.31839343375138
C            2.44318367044003        2.32315385842208       -0.03301003690772
C            2.24538493877635        3.51650059245656       -0.69905125808981
C            1.49944025888513        1.79880592242912        1.00349218318873
C            1.41155786935256        0.25306039451691        0.93805695285200
C            2.82238602757906       -0.22243366145874        1.13303740676350
C            3.17202175082133       -1.12843251424342        2.09541617773684
C            2.22588028690544       -1.60487133957362        3.00653157626002
C            0.91962864772896       -1.13146117914942        2.96898937178116
C            0.47788304397212       -0.24728739723608        2.00942323635072
C           -0.91493918623689        0.10444788998237        1.88113472583200
C           -1.76067578146479        0.08331279291739        2.99268590983795
C           -3.11186275795486        0.29749744737941        2.86799171134552
C           -3.66798076118847        0.50852744793589        1.60629210709571
C           -2.84829993939568        0.60806652710249        0.47897482741856
C           -1.46225977297554        0.44761917363940        0.60813479969307
C           -0.54008112262958        0.60905506241882       -0.50119241649122
C           -0.67781429326569        1.58267442612006       -1.46190101429020
C            0.25650026931699        1.77733487457014       -2.47730869641903
C            1.35977620393892        0.93076474011232       -2.58654684303646
C            1.59068990339272       -0.03666247176195       -1.64631577690089
C            0.72697258157382       -0.20847165994561       -0.43053030926595
C            0.39727674327627       -1.71947750212409       -0.36771479571874
C            1.65392631806169       -2.52923703731251       -0.30146017836198
C            1.78097997214010       -3.67672800730316        0.45550995314251
C            2.96644572498479       -4.39695476358588        0.45577704484706
C            4.03473215855152       -3.97065771022801       -0.31541636208456
C            3.92855834773741       -2.82293834209469       -1.07804234453274
C            2.74317643267992       -2.09301864385391       -1.06774056184508
N            2.60277182045174       -0.94499385284826       -1.81509149151990
C           -3.52474888850981        0.84965212724561       -0.84721015928952
C           -4.92663043922622        0.30735005731693       -0.88704241443313
C           -5.52741449676457       -0.07851280037319       -2.07113864690152
C           -6.85712841855826       -0.46966604103708       -2.09915417316652
C           -7.59716958422384       -0.47499788020568       -0.92938996906366
C           -7.00587223365753       -0.11857629710330        0.26809283202441
C           -5.66942833040048        0.26749030400732        0.29543406109852
N           -5.04440882515344        0.60941381855646        1.47874109646537
N            3.77999046074616        0.37830425312839        0.35417884005809
H            2.99527119305728        4.90100214353257       -2.15034300421484
H            5.01671481114668        3.56974437188559       -2.63206059324175
H            5.39892623769428        1.43546008998926       -1.45551717939847
H            1.36418405182266        4.10173265425824       -0.48077961795914
H            1.87992161632855        2.05741498664626        1.99959396949908
H            0.51728976135371        2.25710104303576        0.89941899719328
H            4.20130208805257       -1.45153651124019        2.16979920573418
H            2.51970733384096       -2.32311702146636        3.75488843560691
H            0.21766942522771       -1.51253855873085        3.69585350565899
H           -1.34347965469066       -0.08783810009165        3.97279522325460
H           -3.75424917800077        0.27693911662777        3.73723185868854
H           -1.51807254459557        2.25604437770212       -1.41753134650236
H            0.10940628372422        2.56253152540436       -3.20099432823857
H            2.03547520937707        1.02904714331378       -3.42484725689587
H           -0.14587164698577       -1.97331119551078       -1.28659456438726
H           -0.25346145030227       -1.95096838559166        0.47352445963337
H            0.94446438841610       -4.01125152198749        1.05113043615081
H            3.05455665585293       -5.29045791303287        1.05459716534624
H            4.95662138666410       -4.53353922822472       -0.32238646411243
H            4.75858168576352       -2.48530155998111       -1.68382589095908
H            3.28891245212661       -0.75041011976107       -2.52991740277483
H           -3.59500506373853        1.93199309251385       -1.02429809385578
H           -2.93343934669224        0.42172067468551       -1.65936323964010
H           -4.95152783093862       -0.05919122491374       -2.98562608125476
H           -7.31520586903009       -0.75952205158129       -3.03260489760262
H           -8.63679923688414       -0.76704180143058       -0.94612185105509
H           -7.57427373430307       -0.13673062845248        1.18776956709730
H           -5.58007305881981        0.48579037967541        2.32633758453605
H            4.70565042350808       -0.02478577729939        0.35934822625914
