63
 energy: -98.095358899996 gnorm: 0.000038270897 xtb: 6.7.1 (edcfbbe)
C           -6.03352338442929        0.03192947570337       -1.59476621686931
C           -5.37735132304053        0.05126441834229       -0.20119363110910
C           -6.45223226749419        0.18660482162118        0.89367666762539
C           -4.63699207633260       -1.25682691113533       -0.00062305865064
C           -5.33765526874620       -2.45427080736405       -0.06725527654109
C           -4.71360663755063       -3.68046821879848        0.06831918695235
C           -3.34349848877219       -3.72351255736874        0.25393015118143
C           -2.62389320925270       -2.54884757767071        0.32565515835849
C           -3.25836760623656       -1.30639612900764        0.22827884422014
N           -2.50495015152325       -0.14125878140602        0.32072887009693
C           -1.13008759574299       -0.24621559291598        0.63590442406554
C           -0.75710658642484       -0.67659439562365        1.93014165174974
C            0.55733506695891       -0.76646346201238        2.28896887717804
C            1.56260158392843       -0.43112680955677        1.35929566288371
N            2.85851421263425       -0.43189355995280        1.72987193316764
C            3.76088873158868       -0.13478628620056        0.82742813925382
C            5.15349230930197        0.01692888591233        1.26188855915912
C            5.71106184312588       -0.85284998591526        2.19713136433679
C            7.02961276426911       -0.66253748364512        2.57093190388341
C            7.73695985696949        0.39180526241047        2.01251609068488
C            7.08112870272594        1.21491092308697        1.10873376442609
N            5.82635173414914        1.03935477714791        0.73717773574054
C            3.39442451324065        0.08656277755115       -0.53694655718895
C            4.41935271567518        0.15886551706018       -1.58417761992942
C            4.30600233273655        1.06629190395507       -2.63556113744129
C            5.29973380858247        1.08762482658305       -3.59832279525062
C            6.35804846904504        0.19821418192982       -3.48599177323864
C            6.36449126808502       -0.68027859515167       -2.41225530214987
N            5.42672016253234       -0.70598389011107       -1.48315611372074
N            2.13833179297961        0.17861958859690       -0.89494296088581
C            1.19128381289034       -0.03616791096488        0.04343198116659
C           -0.16872206726505        0.06552614439916       -0.29604810242337
C           -3.07861831596762        1.11489170345853        0.14931207039639
C           -2.29455154980505        2.26503844193121        0.28017554954650
C           -2.83795035546705        3.52180976880038        0.11323799595528
C           -4.18314253813103        3.65714302996784       -0.17886213507537
C           -4.96718003622018        2.52325447767344       -0.27928446204527
C           -4.44625312932061        1.24598831215867       -0.11501415529214
H           -6.72937783621715       -0.79732161424843       -1.68436810103372
H           -6.57747620827128        0.95369797468253       -1.77995976389617
H           -5.26906229197107       -0.07662463927861       -2.36236533393720
H           -7.14784513322432       -0.64702517482195        0.85743003150676
H           -7.01629670769376        1.10686983766144        0.77182579250390
H           -5.98156274118563        0.19941336421049        1.87529213882904
H           -6.40393307320717       -2.43518774100914       -0.23269676657413
H           -5.28972810909148       -4.59187736362010        0.01598797527308
H           -2.82926315274682       -4.66966074569336        0.33705606005477
H           -1.55276998225898       -2.59414118419360        0.45071053904906
H           -1.53770789551168       -0.92031180698523        2.63547189426877
H            0.85562052835840       -1.07271825182319        3.27933729091817
H            5.11278206105493       -1.65364163878023        2.60154407961003
H            7.49805307020653       -1.32307267638683        3.28582688706578
H            8.76672818835401        0.57634311583765        2.27447044228572
H            7.57913308375878        2.06266326645229        0.65511393274055
H            3.45863104640809        1.73208806496584       -2.67436216666196
H            5.24938616668040        1.78348024735938       -4.42295885334113
H            7.15466013317991        0.18068138622470       -4.21283282128997
H            7.15749336795275       -1.40619802763615       -2.28340213678289
H           -0.43475559781993        0.38180952874923       -1.29302795627022
H           -1.24680230158934        2.17495375775137        0.52210222542120
H           -2.20702810691432        4.39239495072476        0.21649808656878
H           -4.62050875728050        4.63448013517302       -0.31588291156495
H           -6.01901984466942        2.64275295120478       -0.48914684897715
