63
 energy: -98.042402807119 gnorm: 0.000052005327 xtb: 6.7.1 (edcfbbe)
C           -6.34837881657493        1.22200000538215       -1.42254123264836
C           -5.81216019525076        0.37294946740103       -0.25316801184106
C           -6.98223683920666       -0.15776279428252        0.59816783677218
C           -5.04967412438283       -0.80579106971958       -0.82208920924123
C           -5.70054666271650       -1.71138821172078       -1.64912719708180
C           -5.04792109291496       -2.79622142813729       -2.20565611312849
C           -3.70125433717280       -2.99159836194036       -1.94103234199225
C           -3.02964663762754       -2.11142578648577       -1.12205395145635
C           -3.68991199555356       -1.01634505777329       -0.54802524459853
N           -2.99069926891640       -0.15500504570550        0.27348166157909
C           -1.61550509430960       -0.42074113858448        0.54093974630784
C           -1.26921375071728       -1.31497557287216        1.54347905188574
C            0.06668532795806       -1.57842114855243        1.80789093023332
C            1.07612893437760       -0.95512038898716        1.07695503050501
N            2.37554801170519       -1.15603934103255        1.34496872098237
C            3.31672671100724       -0.55082604953908        0.63280008066271
C            4.70845099185155       -0.68848789376654        1.05548262967296
C            5.19094387200121       -1.92310675882048        1.49858329610228
C            6.50630185395747       -2.00935788395199        1.91070988536586
C            7.29678859313436       -0.86772832096846        1.88311954784721
C            6.71537975063664        0.31617955793666        1.45471942513310
N            5.46149594164603        0.40910471793975        1.05604158055212
C            2.96420935634428        0.25695432690674       -0.46467366259498
C            3.97492152379837        0.77321857569530       -1.37728411509025
C            3.80316160290876        2.02212837213450       -1.98490124455008
C            4.77471099997369        2.47422713312519       -2.85457714859327
C            5.88098948468855        1.67165926429469       -3.10660317753690
C            5.94429661802950        0.43671056842056       -2.47883296330829
N            5.02314452744956       -0.00436859584624       -1.64472073717210
N            1.68412627625232        0.51784178290039       -0.71485884501085
C            0.71460688662975       -0.03874148234466        0.02554335956296
C           -0.63266163983187        0.21527300322073       -0.21519402175528
C           -3.58232655533417        0.95132883995106        0.84878695736841
C           -2.82319137021825        1.78538579389976        1.68105425938000
C           -3.38373435392686        2.89864777314635        2.26683841572797
C           -4.71684451336557        3.20113661298014        2.03663451267443
C           -5.47170466533858        2.37544825950315        1.22354978176970
C           -4.93479407689287        1.24641782486185        0.61965519370648
H           -6.99504627220418        0.63036667767645       -2.06364936708705
H           -6.91683346153963        2.07067564982850       -1.05397547653995
H           -5.51920832971959        1.59574899702231       -2.02059908347127
H           -7.64398710707618       -0.77691142713802       -0.00013440663535
H           -7.56217655320223        0.66259784286941        1.01030488173482
H           -6.60017552146436       -0.75766886994880        1.42214070037881
H           -6.74700960744627       -1.57088630837455       -1.87054796640039
H           -5.58418986042710       -3.48125000077876       -2.84429919398058
H           -3.17339614550076       -3.82838325078886       -2.37313541675027
H           -1.98057185206117       -2.26127202684573       -0.91971128765514
H           -2.04262028589644       -1.80171217326752        2.11765541400884
H            0.34974101194256       -2.25991265588543        2.59433526126878
H            4.53268047033273       -2.77765258759411        1.50542296993474
H            6.91246213803311       -2.95152475858501        2.24956692722987
H            8.32976656903300       -0.89273075616139        2.19169114989884
H            7.27533356869435        1.24286479076566        1.43146889212230
H            2.92216227917892        2.60168609702636       -1.75801846999183
H            4.67564355571896        3.43872048424768       -3.33156312773746
H            6.66506380851393        1.98968968435737       -3.77506619802693
H            6.77022700641235       -0.24195268498047       -2.65267132271391
H           -0.90341251804158        0.89795529697560       -1.00521397350101
H           -1.78670182050652        1.54809641131205        1.86352430165222
H           -2.78072397497369        3.52841019156940        2.90353407358192
H           -5.16534890844316        4.07198616784540        2.48967222855894
H           -6.50896193638851        2.62249644945260        1.05942941724638
