  58
  -100.575882970000       0.152391326596352      !
 O          5.4389887612       -2.7311664403       -0.2667294085
 S          5.1346563841       -1.5102705415        0.4327693189
 O          5.5663815629       -1.4054276766        1.7926643272
 C          5.8251708103       -0.1503086977       -0.5192140092
 C          6.8727693934       -0.3895642817       -1.3905094028
 C          7.4119365980        0.6628805807       -2.1145077126
 C          6.8952139181        1.9424254680       -1.9730146916
 C          5.8367709361        2.1740033738       -1.1077714016
 C          5.3108668154        1.1221762144       -0.3791889954
 S          3.9437956856        1.4206569166        0.7493393062
 O          3.2665233950        2.6121642526        0.3062894674
 O          4.4208970504        1.3980907814        2.0978498816
 C          2.8476561099        0.0292321211        0.4631318274
 C          1.4893108765        0.2495357872        0.3786387955
 C          0.6131881373       -0.8191602883        0.1671208696
 C         -0.8311486589       -0.5950767681        0.0914773567
 C         -1.3495065257        0.5564320663       -0.5042043985
 C         -2.7078055313        0.7683607573       -0.5782916670
 C         -3.6048860780       -0.1594891335       -0.0396823916
 N         -4.9745073952        0.0571421332       -0.1006304188
 C         -5.8615506296       -1.0264640028       -0.1958989881
 C         -5.5598782500       -2.1174762093       -1.0093009974
 C         -6.4374201955       -3.1808976394       -1.0977282823
 C         -7.6268877863       -3.1695505025       -0.3878232985
 C         -7.9342156290       -2.0833722310        0.4149749645
 C         -7.0597487146       -1.0185066661        0.5158700222
 C         -5.4938741175        1.3600558697       -0.0455215721
 C         -4.9312335272        2.3118646879        0.8031776357
 C         -5.4532734459        3.5898687959        0.8556829117
 C         -6.5439526885        3.9346459774        0.0743314301
 C         -7.1097538212        2.9898388670       -0.7657133303
 C         -6.5898805098        1.7114175401       -0.8313371284
 C         -3.0886342034       -1.3101400834        0.5642749397
 C         -1.7298583732       -1.5240268925        0.6193000865
 C          1.1531511321       -2.1018443905        0.0286015036
 C          2.5176344062       -2.3124840932        0.1023976029
 C          3.3671637324       -1.2427346598        0.3279755676
 H          7.2404780983       -1.3990698246       -1.4864853480
 H          8.2338159254        0.4835162357       -2.7907022561
 H          7.3146799831        2.7603973389       -2.5385411605
 H          5.4009527353        3.1529576306       -0.9844475507
 H          1.1295811824        1.2596662457        0.4955052111
 H         -0.6777076276        1.2765028095       -0.9460920409
 H         -3.0896586835        1.6544007308       -1.0629826413
 H         -4.6385160163       -2.1214181893       -1.5724900890
 H         -6.1935251661       -4.0206250880       -1.7317032430
 H         -8.3107067353       -4.0013443164       -0.4608980764
 H         -8.8587925802       -2.0674077144        0.9733709222
 H         -7.2973394423       -0.1744110294        1.1471156940
 H         -4.0888259675        2.0408418730        1.4224500910
 H         -5.0104057215        4.3180946828        1.5185455397
 H         -6.9513430170        4.9329600768        0.1210616722
 H         -7.9583692937        3.2513861164       -1.3801658603
 H         -7.0277480944        0.9768099097       -1.4910460859
 H         -3.7658787487       -2.0281842790        1.0019089327
 H         -1.3554417200       -2.4056916871        1.1170111523
 H          0.4958049502       -2.9367074854       -0.1605324350
 H          2.9494955952       -3.2932952786       -0.0202774112
  58
  -100.575823510000       0.143098251001077      !
 O          5.5913763372        2.4081180807        0.5594175224
 S          5.1884139396        1.3504926552       -0.3304975038
 O          5.5496286763        1.4764337680       -1.7095005451
 C          5.8508110200       -0.1901270114        0.3178850371
 C          6.9584971986       -0.1614843357        1.1463486155
 C          7.4777201272       -1.3515268947        1.6331895072
 C          6.8815947622       -2.5592625580        1.3009230877
 C          5.7646187108       -2.5810524921        0.4798489144
 C          5.2590791010       -1.3913750338       -0.0136154183
 S          3.8204681999       -1.4227428151       -1.0903909480
 O          3.0991114423       -2.6386293150       -0.8150114766
 O          4.2276457841       -1.1929301771       -2.4425374498
 C          2.8207195228       -0.0504640927       -0.5109663201
 C          1.4561972935       -0.2150677527       -0.4047323926
 C          0.6489561348        0.8421141125        0.0253696279
 C         -0.8021801728        0.6737151119        0.1144048560
 C         -1.6701902793        1.7100335921       -0.2334241504
 C         -3.0359244281        1.5387426468       -0.1909613174
 C         -3.5887954178        0.3226854999        0.2223860188
 N         -4.9637096658        0.1370882375        0.2542489438
 C         -5.5146285191       -1.1308916783        0.0061762268
 C         -4.9807554504       -1.9554281860       -0.9826635117
 C         -5.5314233326       -3.2000314585       -1.2201731969
 C         -6.6230732861       -3.6354835362       -0.4868945661
 C         -7.1619544113       -2.8153882240        0.4907555514
 C         -6.6128748871       -1.5725545710        0.7415978216
 C         -5.8278303736        1.2133928128        0.5070452071
 C         -5.5072610411        2.1693059471        1.4696258362
 C         -6.3665804332        3.2232140501        1.7141952549
 C         -7.5566645129        3.3353709249        1.0139964445
 C         -7.8825095638        2.3833489777        0.0620059038
 C         -7.0260787207        1.3303227302       -0.1954291556
 C         -2.7212433274       -0.7089053007        0.5964038802
 C         -1.3571892208       -0.5378036455        0.5313819397
 C          1.2635847338        2.0530529781        0.3587555247
 C          2.6347134716        2.2053776898        0.2631688617
 C          3.4149619090        1.1511370857       -0.1811265089
 H          7.3880039401        0.7958472166        1.3965637580
 H          8.3462232840       -1.3357925037        2.2737000145
 H          7.2851052597       -3.4846333625        1.6826780115
 H          5.2673774173       -3.5001372512        0.2124364000
 H          1.0359482810       -1.1700151346       -0.6784572700
 H         -1.2674908733        2.6476293052       -0.5859814893
 H         -3.6893574833        2.3426185470       -0.4953123175
 H         -4.1372090247       -1.6124508042       -1.5636111992
 H         -5.1096541586       -3.8299875395       -1.9892005439
 H         -7.0518883580       -4.6074290975       -0.6772566577
 H         -8.0112754515       -3.1483656079        1.0686517004
 H         -7.0288120102       -0.9361869966        1.5089821787
 H         -4.5854571502        2.0758689505        2.0251725590
 H         -6.1090895102        3.9567260610        2.4638346874
 H         -8.2266506423        4.1584119002        1.2103032802
 H         -8.8067213443        2.4648476612       -0.4906966812
 H         -7.2770397041        0.5927386364       -0.9435201215
 H         -3.1308612899       -1.6465627350        0.9410264453
 H         -0.7077990880       -1.3439217898        0.8375173058
 H          0.6603544750        2.8739580311        0.7155914920
 H          3.1249104867        3.1274355113        0.5335587973
  58
  -100.575573740000       0.109862121503861      !
 O          5.4382111190       -2.2073765469       -1.6584897364
 S          5.1179985387       -1.5502894147       -0.4182058397
 O          5.5061780944       -2.2041864649        0.7939641832
 C          5.8500098639        0.0905157932       -0.4638550940
 C          6.9405281810        0.3267145311       -1.2820793606
 C          7.5213999468        1.5854816004       -1.2985908240
 C          7.0029698477        2.6019417044       -0.5096025742
 C          5.9019951352        2.3630275561        0.2986215088
 C          5.3348270295        1.1012396244        0.3210313576
 S          3.9251162224        0.7854190172        1.3908005416
 O          3.2627285737        2.0437072288        1.6202804334
 O          4.3561734306        0.0501201924        2.5402794828
 C          2.8356841016       -0.2308257280        0.3903126445
 C          1.4781056714        0.0076317768        0.4270705307
 C          0.6022581424       -0.7800911423       -0.3255456081
 C         -0.8424797424       -0.5456264577       -0.2714879305
 C         -1.3550170544        0.7484067593       -0.1634253652
 C         -2.7123077706        0.9727528413       -0.1063587942
 C         -3.6133936349       -0.0957496123       -0.1427964190
 N         -4.9829096020        0.1267969013       -0.0755023753
 C         -5.8243020912       -0.7990297205        0.5603775995
 C         -7.0838220831       -1.0800096854        0.0336895767
 C         -7.9167530551       -1.9812415652        0.6683333340
 C         -7.5065894684       -2.6189206511        1.8276013636
 C         -6.2548603218       -2.3438307878        2.3533828857
 C         -5.4179828174       -1.4378261838        1.7308629231
 C         -5.5413044794        1.2872624148       -0.6328288766
 C         -6.5788407905        1.9520423686        0.0181288045
 C         -7.1340150495        3.0875650735       -0.5399375691
 C         -6.6616939069        3.5795523246       -1.7455351818
 C         -5.6296450064        2.9223915754       -2.3953039092
 C         -5.0734473379        1.7818495449       -1.8494390605
 C         -3.1035229135       -1.3932327241       -0.2473527687
 C         -1.7450915290       -1.6095223414       -0.3155400528
 C          1.1421258870       -1.7924434263       -1.1251264247
 C          2.5058584665       -2.0169485792       -1.1662159590
 C          3.3548066558       -1.2381360369       -0.3978973046
 H          7.3090213981       -0.4828802358       -1.8922178708
 H          8.3778351659        1.7732958507       -1.9280158031
 H          7.4552500610        3.5817910526       -0.5244758469
 H          5.4650768375        3.1338560086        0.9137474520
 H          1.1183835265        0.8012367459        1.0628507558
 H         -0.6793598338        1.5898177195       -0.1401786401
 H         -3.0888285000        1.9811247708       -0.0215077489
 H         -7.4020057385       -0.5878913795       -0.8736889389
 H         -8.8899257095       -2.1918481723        0.2501790949
 H         -8.1588367331       -3.3243879149        2.3193051700
 H         -5.9302658634       -2.8310586918        3.2608354810
 H         -4.4475516072       -1.2148590200        2.1494794701
 H         -6.9428000522        1.5738074223        0.9620948138
 H         -7.9358267472        3.5956718399       -0.0251148949
 H         -7.0956755423        4.4686357327       -2.1768161109
 H         -5.2602412703        3.2952132180       -3.3392066374
 H         -4.2764910684        1.2634623781       -2.3624256452
 H         -3.7853411758       -2.2299429004       -0.2797400694
 H         -1.3759868396       -2.6219487373       -0.3800985330
 H          0.4856559480       -2.3950217166       -1.7342062375
 H          2.9376832693       -2.7840674394       -1.7896416926
  58
  -100.575570880000       0.109530133312034      !
 O          5.4506402595       -2.1969257753        1.5898179926
 S          5.1486318245       -0.8271682784        1.2648261503
 O          5.5901731156        0.1797122413        2.1804340421
 C          5.8274352792       -0.4917385304       -0.3655673351
 C          6.8705821150       -1.2648232168       -0.8431716497
 C          7.3997682870       -0.9970948563       -2.0965238598
 C          6.8765652731        0.0299880211       -2.8684129856
 C          5.8227219236        0.7934821692       -2.3896245187
 C          5.3074043073        0.5299903598       -1.1330541447
 S          3.9519467604        1.5284766183       -0.5029561238
 O          3.2658915876        2.0972799701       -1.6340904306
 O          4.4458716461        2.4336793141        0.4888288634
 C          2.8557812637        0.3289040036        0.2588414608
 C          1.4949590723        0.4415250663        0.0662610829
 C          0.6212113032       -0.4784858302        0.6533115804
 C         -0.8268512626       -0.3546737681        0.4719650690
 C         -1.4376085630        0.9000677752        0.4336721605
 C         -2.8005691598        1.0227083328        0.2803157345
 C         -3.6074888918       -0.1112320804        0.1464043478
 N         -4.9825744531        0.0065121592       -0.0103604272
 C         -5.6900165118       -0.9244742175       -0.7866637034
 C         -5.1524757901       -1.4031417270       -1.9804451875
 C         -5.8570160252       -2.3149757496       -2.7424972622
 C         -7.1051606965       -2.7552443564       -2.3333504827
 C         -7.6452967369       -2.2776391300       -1.1505418691
 C         -6.9452522443       -1.3712849125       -0.3777092624
 C         -5.6837100001        1.0570300605        0.6014011465
 C         -5.3464990800        1.4802143822        1.8861312150
 C         -6.0458923945        2.5112158263        2.4833180535
 C         -7.0932578515        3.1266661400        1.8174917183
 C         -7.4361082921        2.7043220444        0.5435802469
 C         -6.7370505970        1.6800961443       -0.0656447576
 C         -2.9977112211       -1.3690701339        0.1736945179
 C         -1.6354742876       -1.4845763529        0.3388539538
 C          1.1654228687       -1.5155897101        1.4174768219
 C          2.5319642392       -1.6287238163        1.5954032082
 C          3.3792910938       -0.6971302835        1.0200312988
 H          7.2430619520       -2.0645408208       -0.2226561207
 H          8.2187103390       -1.5917691208       -2.4713064907
 H          7.2877821101        0.2356293544       -3.8448990315
 H          5.3826503549        1.5899247153       -2.9687896257
 H          1.1343058862        1.2387234102       -0.5646606513
 H         -0.8362654762        1.7891931133        0.5460550262
 H         -3.2541629519        2.0021647951        0.2549123520
 H         -4.1844719464       -1.0512502348       -2.3061749158
 H         -5.4320258390       -2.6764261932       -3.6672061768
 H         -7.6540169279       -3.4648653101       -2.9334142334
 H         -8.6161851411       -2.6184693666       -0.8227614835
 H         -7.3641386227       -1.0038588537        0.5475976181
 H         -4.5379599204        0.9933531652        2.4116252295
 H         -5.7763283800        2.8297083490        3.4793788109
 H         -7.6393629860        3.9293746057        2.2889340845
 H         -8.2491639467        3.1806543596        0.0160555405
 H         -7.0005413740        1.3565464586       -1.0619563807
 H         -3.6057987758       -2.2556662584        0.0725287411
 H         -1.1875994975       -2.4669740871        0.3447656149
 H          0.5071158023       -2.2274341665        1.8916664062
 H          2.9661643186       -2.4274676788        2.1759357266
  58
  -100.575495360000       0.101117663815224      !
 O          5.4372118296       -1.9960621764       -1.9195466841
 S          5.1039663800       -1.5095406397       -0.6061889414
 O          5.4566712248       -2.3325900359        0.5101035132
 C          5.8653456151        0.1072786845       -0.4135906144
 C          6.9759245382        0.4312609543       -1.1723806842
 C          7.5771333165        1.6697657702       -1.0078445723
 C          7.0592576669        2.5798090290       -0.0979064775
 C          5.9383857681        2.2545143934        0.6505720181
 C          5.3504243812        1.0122624930        0.4913572848
 S          3.9140174408        0.5814757989        1.4823053709
 O          3.2698735640        1.8089450805        1.8723661956
 O          4.3084503222       -0.3148662160        2.5253963163
 C          2.8276032233       -0.2664397970        0.3329722281
 C          1.4728350860       -0.0133070089        0.3804626877
 C          0.5997475260       -0.6857396025       -0.4790277375
 C         -0.8448437688       -0.4544682202       -0.4018483436
 C         -1.7440243306       -1.5108996358       -0.5546606339
 C         -3.1018526266       -1.3088188210       -0.4473035455
 C         -3.6138639589       -0.0327003272       -0.1950333542
 N         -4.9836494496        0.1671223868       -0.0731931854
 C         -5.7921448162       -0.8303177328        0.4946015817
 C         -5.3435081539       -1.5614949376        1.5933891973
 C         -6.1444734684       -2.5396113736        2.1502041714
 C         -7.4020931967       -2.7966384532        1.6292413937
 C         -7.8541608549       -2.0677626324        0.5415336424
 C         -7.0572169925       -1.0930067860       -0.0275362785
 C         -5.5732282971        1.3652394026       -0.5012022146
 C         -5.1357934892        1.9919291834       -1.6671546259
 C         -5.7287430138        3.1664454883       -2.0884978717
 C         -6.7673454779        3.7276480063       -1.3637351737
 C         -7.2079509514        3.1058501837       -0.2069736489
 C         -6.6160029912        1.9355737526        0.2271890047
 C         -2.7168024341        1.0309820040       -0.0599212095
 C         -1.3589860538        0.8190001225       -0.1531701853
 C          1.1386160828       -1.5909380607       -1.3983229925
 C          2.5001713899       -1.8262659247       -1.4512676433
 C          3.3459003070       -1.1693913495       -0.5734667570
 H          7.3437586376       -0.2948437040       -1.8801802338
 H          8.4489162083        1.9247006116       -1.5908191345
 H          7.5274729656        3.5440267453        0.0284683542
 H          5.5013216415        2.9428884185        1.3566987505
 H          1.1118630440        0.6956692682        1.1089336320
 H         -1.3713677468       -2.5082093793       -0.7333552867
 H         -3.7819449368       -2.1399124179       -0.5600905508
 H         -4.3677735502       -1.3538912228        2.0077206317
 H         -5.7871105655       -3.0979240205        3.0026920426
 H         -8.0263480887       -3.5591484764        2.0693095919
 H         -8.8319593616       -2.2642429148        0.1274039461
 H         -7.4078942492       -0.5292342252       -0.8795816290
 H         -4.3344416517        1.5488756475       -2.2403556705
 H         -5.3836174007        3.6409953673       -2.9951809889
 H         -7.2308710838        4.6429407683       -1.6987023754
 H         -8.0134938760        3.5392217269        0.3670814047
 H         -6.9553727521        1.4559136103        1.1334950375
 H         -3.0961826837        2.0229523935        0.1349361155
 H         -0.6841502121        1.6546869351       -0.0457801662
 H          0.4830630620       -2.0995931669       -2.0887497425
 H          2.9322412999       -2.5102458838       -2.1647732805
  58
  -100.575552960000       0.107472698717937      !
 O          5.4412332166       -1.0223191915       -2.5415816843
 S          5.1279135366       -1.1402346802       -1.1412507780
 O          5.5467704291       -2.3330939576       -0.4711628562
 C          5.8269092643        0.2899382394       -0.3046573614
 C          6.8865289600        0.9673656970       -0.8810702704
 C          7.4352464357        2.0595608583       -0.2263048453
 C          6.9164065680        2.4747526344        0.9913230961
 C          5.8456094967        1.8002242526        1.5578951266
 C          5.3101891799        0.7041030857        0.9056123768
 S          3.9279785814       -0.1783069957        1.6407237907
 O          3.2556609319        0.7292851261        2.5343566297
 O          4.3866171309       -1.4191142859        2.1858525718
 C          2.8372172672       -0.4926470590        0.2510507441
 C          1.4805341233       -0.3001591119        0.4029318690
 C          0.6078420151       -0.5517980545       -0.6602223741
 C         -0.8347758078       -0.3569868262       -0.5018963583
 C         -1.6193738958        0.1125433874       -1.5569045003
 C         -2.9746445809        0.3046282911       -1.4064962930
 C         -3.6028257363        0.0268937428       -0.1886880920
 N         -4.9690996346        0.2189257989       -0.0321834786
 C         -5.7086138782       -0.6084758750        0.8283398548
 C         -5.4538331408       -1.9776351673        0.8849754010
 C         -6.1890672209       -2.7857655088        1.7305231545
 C         -7.1902034132       -2.2460551111        2.5213766079
 C         -7.4508543569       -0.8868387955        2.4630022777
 C         -6.7157048417       -0.0691613412        1.6264246780
 C         -5.6325145810        1.2382871013       -0.7316722958
 C         -5.0303261519        2.4826846700       -0.9119514073
 C         -5.6921230710        3.4811049310       -1.6002215223
 C         -6.9620314940        3.2606074637       -2.1079017406
 C         -7.5677141208        2.0286731223       -1.9229172246
 C         -6.9104612832        1.0208363784       -1.2439269423
 C         -2.8212600730       -0.4493997977        0.8685387751
 C         -1.4655456604       -0.6324588999        0.7129747300
 C          1.1512851402       -0.9874248459       -1.8731058742
 C          2.5148999781       -1.1605609440       -2.0227887855
 C          3.3604007806       -0.9176880924       -0.9536607422
 H          7.2564871611        0.6259774706       -1.8350524668
 H          8.2669598357        2.5873221987       -0.6675291287
 H          7.3440193653        3.3254738325        1.4995305546
 H          5.4074562492        2.1045600566        2.4953851947
 H          1.1236288240        0.0705839267        1.3509409691
 H         -1.1576941119        0.3512641404       -2.5031449138
 H         -3.5625528343        0.6670753522       -2.2365312694
 H         -4.6808574159       -2.4006010967        0.2600804110
 H         -5.9843868355       -3.8455155995        1.7649407466
 H         -7.7646127004       -2.8811999331        3.1782292407
 H         -8.2275154876       -0.4580086197        3.0787093427
 H         -6.9146690628        0.9917317452        1.5854023043
 H         -4.0455284029        2.6610011386       -0.5054747388
 H         -5.2155388665        4.4411651383       -1.7327130224
 H         -7.4767825452        4.0441667318       -2.6425683599
 H         -8.5566283680        1.8473644432       -2.3171382294
 H         -7.3808250563        0.0581092586       -1.1076643732
 H         -3.2880430529       -0.6661122561        1.8176500026
 H         -0.8868138351       -1.0115016694        1.5412219093
 H          0.4949681448       -1.2080027777       -2.7009662110
 H          2.9481709194       -1.4828818175       -2.9565537761
  58
  -100.575442520000       9.561883424696163E-002 !
 O          5.4487513356       -2.1847236795       -1.6952603653
 S          5.1035302104       -1.5595599099       -0.4452062132
 O          5.4437641704       -2.2577532581        0.7568128572
 C          5.8657217078        0.0680918750       -0.4192580635
 C          6.9838460542        0.3086222022       -1.1977354363
 C          7.5860577472        1.5569836345       -1.1598387514
 C          7.0617072391        2.5589156404       -0.3564560553
 C          5.9333572999        2.3160169648        0.4117142238
 C          5.3444622654        1.0644903055        0.3797627646
 S          3.8981787168        0.7434956700        1.3975397020
 O          3.2515998730        2.0060895482        1.6457660029
 O          4.2813746644       -0.0341965151        2.5357395117
 C          2.8212712019       -0.2235556494        0.3366816499
 C          1.4661528401        0.0314379819        0.3483456922
 C          0.5988937320       -0.7300531934       -0.4397534138
 C         -0.8463659570       -0.4954133417       -0.3899472662
 C         -1.3631227576        0.7961893686       -0.2786553872
 C         -2.7209179650        1.0132648003       -0.1988717537
 C         -3.6145347609       -0.0616243179       -0.2081235949
 N         -4.9838766208        0.1463375626       -0.0894872176
 C         -5.7768370326       -0.7766642346        0.6097085706
 C         -7.0573883458       -1.0901168164        0.1578077535
 C         -7.8389705392       -1.9904112634        0.8562486540
 C         -7.3563145059       -2.5950053414        2.0052632646
 C         -6.0832429214       -2.2876302646        2.4567241720
 C         -5.2975179674       -1.3822212855        1.7704134412
 C         -5.5819197826        1.2880259289       -0.6419199462
 C         -6.6093521215        1.9434386069        0.0347193983
 C         -7.2069870342        3.0578885056       -0.5214577466
 C         -6.7874238916        3.5390779655       -1.7508337051
 C         -5.7638871394        2.8932406151       -2.4247437428
 C         -5.1652401364        1.7733730705       -1.8806395280
 C         -3.1003997225       -1.3558608350       -0.3285247144
 C         -1.7426364105       -1.5646916589       -0.4241904920
 C          1.1438940345       -1.7265110632       -1.2549717398
 C          2.5060148693       -1.9643275272       -1.2740740260
 C          3.3457255335       -1.2173041626       -0.4652020860
 H          7.3570432269       -0.4890835099       -1.8205400444
 H          8.4640221918        1.7475532867       -1.7578612882
 H          7.5307207560        3.5305152302       -0.3285757115
 H          5.4912077799        3.0758625062        1.0367400655
 H          1.0999813702        0.8133482908        0.9949952726
 H         -0.6903368016        1.6402912787       -0.2672435919
 H         -3.1028191361        2.0193954844       -0.1107806918
 H         -7.4321703262       -0.6245993614       -0.7419523007
 H         -8.8291979691       -2.2266457531        0.4959092021
 H         -7.9686529384       -3.2999474304        2.5464274638
 H         -5.7013605596       -2.7487232103        3.3554614197
 H         -4.3098970396       -1.1342700254        2.1308561403
 H         -6.9324523771        1.5737250722        0.9967672170
 H         -8.0013812359        3.5577125794        0.0127130306
 H         -7.2559734543        4.4106774532       -2.1815749355
 H         -5.4352270954        3.2577167231       -3.3867765981
 H         -4.3752493323        1.2636417836       -2.4127239849
 H         -3.7788075449       -2.1958127672       -0.3459731282
 H         -1.3675177363       -2.5742605333       -0.4982787306
 H          0.4927970614       -2.3071787672       -1.8906688176
 H          2.9430353965       -2.7199654507       -1.9078111224
  58
  -100.575420750000       9.344125124818219E-002 !
 O          5.4677191526        1.9297469924       -1.2629723177
 S          5.1105178557        0.5627175579       -1.4908626673
 O          5.4467672562       -0.0058454557       -2.7700326690
 C          5.8632904530       -0.4635714423       -0.2216573765
 C          6.9745584808       -1.2262572379       -0.5340872047
 C          7.5713163718       -1.9982571422        0.4509206429
 C          7.0481757961       -2.0140503975        1.7356208297
 C          5.9266267642       -1.2577094285        2.0396996732
 C          5.3433016750       -0.4790209041        1.0559891800
 S          3.9076345290        0.5237355926        1.4608523098
 O          4.3059411866        1.8918125928        1.5912566945
 O          3.2551519669       -0.0862343091        2.5904473237
 C          2.8270240960        0.3407500009        0.0398988145
 C          1.4697886433        0.2082611595        0.2449315297
 C          0.5993783989        0.1049090553       -0.8435261391
 C         -0.8475304003        0.0200449183       -0.6299257328
 C         -1.7314011432        0.6972450190       -1.4713110988
 C         -3.0897296507        0.6644649499       -1.2476607459
 C         -3.6173399724       -0.0625069047       -0.1765652021
 N         -4.9868690342       -0.0752405685        0.0606297693
 C         -5.6110066927       -1.2155047716        0.5859889783
 C         -5.2210591224       -2.4882724878        0.1716951904
 C         -5.8463629301       -3.6077699887        0.6856359337
 C         -6.8706401360       -3.4776973756        1.6091039314
 C         -7.2640569211       -2.2147756221        2.0202842607
 C         -6.6395164176       -1.0894297908        1.5184424113
 C         -5.7546101886        1.0704776836       -0.2008872699
 C         -7.0348806682        0.9529193775       -0.7386331827
 C         -7.7913701796        2.0830049236       -0.9831231882
 C         -7.2835224220        3.3411866139       -0.7041671563
 C         -6.0105717703        3.4624074157       -0.1713280555
 C         -5.2497195690        2.3382014564        0.0844934748
 C         -2.7366462271       -0.7629711054        0.6527562705
 C         -1.3777751190       -0.7123626146        0.4331457254
 C          1.1429934953        0.1067987262       -2.1315669212
 C          2.5069879449        0.2216028651       -2.3281153157
 C          3.3501680498        0.3520617876       -1.2374930982
 H          7.3467098441       -1.2007690133       -1.5462032016
 H          8.4440041955       -2.5879409063        0.2153336898
 H          7.5129413228       -2.6162772493        2.5012948569
 H          5.4856614368       -1.2569281547        3.0241107073
 H          1.1047132689        0.2107165570        1.2599853831
 H         -1.3454263940        1.2806396375       -2.2935776070
 H         -3.7581585957        1.2037739850       -1.9021464255
 H         -4.4308354633       -2.5909427749       -0.5576905323
 H         -5.5375893766       -4.5884344782        0.3549065311
 H         -7.3596470057       -4.3546521315        2.0048790457
 H         -8.0583902322       -2.1042649913        2.7434959578
 H         -6.9423948620       -0.1056675044        1.8456918862
 H         -7.4290669392       -0.0274319629       -0.9629137919
 H         -8.7815469267        1.9800659611       -1.4016536883
 H         -7.8763484352        4.2217111401       -0.8992655894
 H         -5.6094707495        4.4389018006        0.0561333527
 H         -4.2620436578        2.4335825410        0.5113476128
 H         -3.1288813832       -1.3324823955        1.4820542701
 H         -0.7148919403       -1.2580564945        1.0874676075
 H          0.4889712059        0.0007555855       -2.9837478869
 H          2.9427106669        0.2112318283       -3.3148513208
  58
  -100.575358320000       8.746771955837171E-002 !
 O          5.4631130779       -1.1710520428       -2.4376072349
 S          5.1551687220       -1.1831398528       -1.0311115157
 O          5.6415663467       -2.2851453028       -0.2598093431
 C          5.7611185562        0.3574620464       -0.3284995482
 C          6.7614715401        1.0591513861       -0.9769805050
 C          7.2269997745        2.2454075307       -0.4303296685
 C          6.6839723989        2.7284529077        0.7511367003
 C          5.6729345210        2.0272024908        1.3904130348
 C          5.2212967180        0.8381309009        0.8467360565
 S          3.9088523104       -0.0746926455        1.6680232165
 O          3.1850487052        0.8531898082        2.4979372725
 O          4.4510185953       -1.2373657519        2.3004577414
 C          2.8335490260       -0.5536550587        0.3135379922
 C          1.4700057511       -0.4002048814        0.4476344618
 C          0.6154400739       -0.7426778768       -0.6041278633
 C         -0.8307659017       -0.5499013894       -0.4738111867
 C         -1.5888227407       -0.0860802342       -1.5498659199
 C         -2.9396911573        0.1459363568       -1.4183406061
 C         -3.5875802857       -0.0908067220       -0.2024807363
 N         -4.9459826772        0.1692661012       -0.0654541310
 C         -5.7447980942       -0.6226175817        0.7723488613
 C         -5.5496283350       -2.0014014940        0.8374617975
 C         -6.3454342019       -2.7771462960        1.6582331627
 C         -7.3482851989       -2.1956587710        2.4166269938
 C         -7.5484427734       -0.8264930175        2.3512716311
 C         -6.7526039093       -0.0410712115        1.5398294810
 C         -5.5251183407        1.2501437787       -0.7477442498
 C         -4.8352519627        2.4550044211       -0.8754416000
 C         -5.4104570373        3.5171241992       -1.5456137161
 C         -6.6795969269        3.3993762010       -2.0882638945
 C         -7.3712314227        2.2062832839       -1.9576494092
 C         -6.8011392366        1.1354357891       -1.2962684789
 C         -2.8365060564       -0.5818383726        0.8693442336
 C         -1.4827672540       -0.7972288379        0.7352220100
 C          1.1787382262       -1.2406070373       -1.7827800319
 C          2.5482472622       -1.3829391931       -1.9125204959
 C          3.3778629549       -1.0385748111       -0.8589894543
 H          7.1503054860        0.6628788795       -1.9017849306
 H          8.0110589647        2.7945136474       -0.9289057274
 H          7.0449564689        3.6537997469        1.1734792663
 H          5.2172977840        2.3813871940        2.3017018072
 H          1.0921655207        0.0187016850        1.3671582381
 H         -1.1070597385        0.1221583330       -2.4934047167
 H         -3.5087591931        0.5148714173       -2.2587143251
 H         -4.7759487560       -2.4578671015        0.2374971104
 H         -6.1868476157       -3.8446099660        1.6983270268
 H         -7.9704193562       -2.8056533779        3.0535481460
 H         -8.3246600942       -0.3641936834        2.9428898516
 H         -6.9036916821        1.0275805751        1.4968590132
 H         -3.8504327148        2.5521241384       -0.4422705846
 H         -4.8669693939        4.4459995243       -1.6359773671
 H         -7.1271932167        4.2327596741       -2.6078843783
 H         -8.3600723375        2.1055397919       -2.3798006990
 H         -7.3387377398        0.2035523325       -1.2002927842
 H         -3.3232544279       -0.7757014825        1.8134377100
 H         -0.9208355328       -1.1757978034        1.5754400890
 H          0.5337910133       -1.5291455240       -2.5988220211
 H          2.9985119355       -1.7517714064       -2.8207127515
