  47
        -72.31664810
 C          2.0589969449       -2.7602527738       -0.4003607420
 C          1.1895860441       -1.7539784984        0.3934582982
 C          1.3250508520       -1.9453879813        1.9239343809
 C          1.5605292643       -0.3361936684        0.0196947531
 C          0.5298114183        0.5917430826       -0.2902297808
 C          0.8378445310        1.8250660227       -0.8976141250
 C          2.1298448143        2.2004644966       -1.0868834061
 C          3.1935780626        1.4019324020       -0.5837671660
 C          4.5113593762        1.8516336606       -0.6745696205
 C          5.5629529476        1.0983934809       -0.1822135287
 C          5.2939145631       -0.1207011274        0.4242139181
 C          4.0033683408       -0.5972685247        0.5124442009
 C          2.9006020216        0.1273630725       -0.0076301165
 N         -0.7827454250        0.2827812034       -0.0350473808
 C         -1.7204110684        1.2756570829        0.2278601113
 C         -1.3395295796        2.4812362603        0.8169233136
 C         -2.2647955555        3.4873742383        1.0265876904
 C         -3.5926362934        3.3026287875        0.6455372116
 C         -3.9985228979        2.0914672130        0.1337188959
 C         -3.0868967433        1.0420701647       -0.0519925187
 C         -3.5514340063       -0.2728481161       -0.4520137662
 O         -4.7240533378       -0.4956040319       -0.8143501764
 C         -2.5648788896       -1.3290037428       -0.2954565403
 C         -2.9556404195       -2.6673853357       -0.3838907301
 C         -2.0359865795       -3.6780416094       -0.2053236953
 C         -0.7033143394       -3.3775055898        0.0400906374
 C         -0.2632160334       -2.0571515284        0.0891389318
 C         -1.1995228111       -1.0361319410       -0.0624566980
 H          1.5237799468       -3.0818762944       -1.2910074232
 H          2.2899510353       -3.6361379282        0.1996670754
 H          2.9891815394       -2.3126073721       -0.7296246494
 H          2.3259168835       -1.7220423954        2.2758630138
 H          0.6317230773       -1.2786359390        2.4343505367
 H          1.0737776619       -2.9681997255        2.1935454753
 H          0.0279261472        2.4442082599       -1.2513874604
 H          2.3664378100        3.1183666651       -1.6019885100
 H          4.6996161309        2.8107810196       -1.1344105316
 H          6.5764556410        1.4609530260       -0.2566970632
 H          6.1018262518       -0.7058169387        0.8382452072
 H          3.8511599710       -1.5351882848        1.0155843284
 H         -0.3154946644        2.6189659443        1.1304786349
 H         -1.9527652560        4.4119327438        1.4858532162
 H         -4.3065747525        4.1011914571        0.7780868625
 H         -5.0279544296        1.9040817898       -0.1285640408
 H         -3.9960058542       -2.8720015800       -0.5809245164
 H         -2.3509245148       -4.7095919281       -0.2492681129
 H         -0.0037018450       -4.1823649934        0.1922782822
