47
 energy: -72.426768956882 gnorm: 0.000122829555 xtb: 6.7.1 (edcfbbe)
C            2.03051145962158       -2.46008110955701        0.82764088249312
C            0.93517601028385       -1.40143524073415        0.69689314185381
C            0.42427190214471       -1.13918529903613        2.13498292211445
C            1.28086504937556       -0.04013840336056        0.08020850860133
C            0.17061495641211        0.74031501621254       -0.21182234558375
C            0.27193207165830        1.99577936247428       -0.84046374640666
C            1.49354905605211        2.51966179506146       -1.11870742000576
C            2.66203366991033        1.80956090779177       -0.78306239788931
C            3.91550933390737        2.39415582761342       -1.05929224347711
C            5.08126607851978        1.75246793822698       -0.75766209395400
C            5.01464708821576        0.49009852235352       -0.15848756685140
C            3.81136508063486       -0.10214395195480        0.11490517601169
C            2.57309677438668        0.51460423822173       -0.18503785416472
N           -1.13319645280672        0.23247323534802       -0.02133257506421
C           -2.23468344244568        1.03219957511778        0.19271421477919
C           -2.12362582474563        2.23789476199929        0.89803631277829
C           -3.23513436959602        3.01406470748720        1.13299071757829
C           -4.48968260995572        2.61563804943592        0.67541427433763
C           -4.61692603372572        1.42243519537853        0.00475995852598
C           -3.50498086217428        0.60907161971192       -0.23798898099615
C           -3.67761953979338       -0.66708898755828       -0.93567820237001
O           -4.72017893849353       -0.97307980635270       -1.51691250627191
C           -2.52438537987490       -1.56110857696213       -0.84920006345089
C           -2.61178360990092       -2.89285034251713       -1.26595550726784
C           -1.51659805196220       -3.71619397972036       -1.16794896062743
C           -0.33668281383522       -3.25750374450283       -0.58292877573002
C           -0.22448876760863       -1.96052405190959       -0.12092627746383
C           -1.31004041830923       -1.09719503903876       -0.32961764461735
H            1.57278332231058       -3.38584552423488        1.17029125486416
H            2.74808495986039       -2.17996394959586        1.59250216016107
H            2.53231476215855       -2.64717542120723       -0.11787733907072
H            1.23105895580938       -0.72301687153919        2.73471487336874
H           -0.40860628507694       -0.44286044070595        2.15737833563430
H            0.09788893032384       -2.07362730556053        2.58675030604323
H           -0.62976918634514        2.51750856909643       -1.12201938288925
H            1.58199646990591        3.47827721626025       -1.60768279415187
H            3.92814294630644        3.37349862942167       -1.51650753596363
H            6.03826823912403        2.20538716038271       -0.97033547127222
H            5.92925479886292       -0.02630651164690        0.09553172824525
H            3.84215549566367       -1.06377840923949        0.58192792594556
H           -1.15859405418679        2.54296844729814        1.27399675264231
H           -3.13288657413946        3.93572410501283        1.68603024048544
H           -5.35505206136598        3.23373912357139        0.85853484874458
H           -5.57597409137935        1.07121135530164       -0.34805644793904
H           -3.55347358589757       -3.23858508326034       -1.66583027665294
H           -1.57305800167246       -4.73645451642993       -1.51584072126411
H            0.48063554382920       -3.95259479216877       -0.48903040381509
