  44
        -87.66310942
 O         -2.3889799463        0.3525253244       -2.6045895696
 C         -2.6586331130       -0.3164570529       -1.6068848073
 O         -3.8986460218       -0.8441120600       -1.5365316947
 C         -4.3021324327       -1.5496658727       -0.4518810208
 C         -5.5844536016       -2.0947152291       -0.4683881253
 C         -6.0374806336       -2.7975041764        0.6276483620
 C         -5.2264503104       -2.9617939761        1.7483247447
 C         -3.9593844672       -2.4272542085        1.7697885536
 C         -3.4752889185       -1.7155568496        0.6659411968
 C         -2.1375524659       -1.1577870741        0.6267239331
 O         -1.4054923751       -1.3128183993        1.7118301582
 C         -1.7316565281       -0.5369386631       -0.5299267194
 C         -0.3388417843       -0.0006988324       -0.7894812421
 C          0.7547038560       -0.9724201479       -0.4665601932
 C          0.6903823720       -2.3065221790       -0.2129246138
 C          1.9567034263       -2.9152939388       -0.0610235251
 C          2.9678839049       -2.0260379448       -0.2235353615
 Br         4.8100473887       -2.3747431586       -0.1093857030
 S          2.4018319512       -0.4251894003       -0.5652158199
 C         -0.1106296198        1.3567051762       -0.1503715755
 C         -0.3991358733        2.5126466120       -0.8331312578
 O         -0.9910731270        2.5592569796       -2.0175617645
 C         -0.0209231878        3.7769085159       -0.2412297422
 C         -0.2065013557        5.0033986837       -0.8894847129
 C          0.2004350042        6.1717344504       -0.2887403285
 C          0.7986843695        6.1418417346        0.9691434765
 C          0.9859432112        4.9460083083        1.6288285045
 C          0.5750492554        3.7587219888        1.0263020295
 O          0.7481019579        2.6056034730        1.7139058438
 C          0.4079268729        1.4057526354        1.1900231989
 O          0.5521146056        0.4252813080        1.9137704709
 H         -6.1969574995       -1.9513522825       -1.3441565199
 H         -7.0299909025       -3.2206879474        0.6155604477
 H         -5.5935665985       -3.5106908326        2.6014225688
 H         -3.3119465859       -2.5437995879        2.6242611044
 H         -0.5584201792       -0.7837091276        1.6831114619
 H         -0.2838633383        0.1527299335       -1.8767166495
 H         -0.2271348568       -2.8572949926       -0.1300107839
 H          2.1059693197       -3.9560682763        0.1587493606
 H         -1.4009901033        1.6899575914       -2.2731552655
 H         -0.6676420194        4.9998821876       -1.8642035005
 H          0.0570179694        7.1145717122       -0.7931392787
 H          1.1172658012        7.0618846336        1.4343036463
 H          1.4431346321        4.9005339620        2.6042635912
  44
        -87.66236432
 O         -2.0132854639        0.7878304988       -2.5959444093
 C         -2.2434413531        0.0889635995       -1.6076340014
 O         -3.4526779475       -0.5037909587       -1.5411518793
 C         -3.8048391943       -1.2639680408       -0.4755230416
 C         -5.0526341300       -1.8832918276       -0.5018502232
 C         -5.4524135290       -2.6501864793        0.5716139775
 C         -4.6220043378       -2.8057586477        1.6791208689
 C         -3.3908109017       -2.1936221468        1.7124492334
 C         -2.9616514578       -1.4140264601        0.6321649952
 C         -1.6640263122       -0.7695650023        0.6060623589
 O         -0.9201365162       -0.8962463619        1.6858823722
 C         -1.3028160627       -0.0969463446       -0.5373326006
 C          0.0645161282        0.5057603208       -0.7910576261
 C          1.1951788279       -0.4274595994       -0.4783981426
 C          2.5147444154       -0.1225357867       -0.3471666035
 C          3.3433009074       -1.2536853833       -0.1838819110
 C          2.6320160827       -2.4090175415       -0.2202778900
 Br         3.3002167927       -4.1576248573       -0.0560149211
 S          0.9365938880       -2.1440002647       -0.4484266107
 C          0.2310630149        1.8688810126       -0.1481370476
 C         -0.1047903590        3.0084296731       -0.8383299584
 O         -0.6805624469        3.0249461209       -2.0308734395
 C          0.2025568686        4.2923284454       -0.2468021497
 C         -0.0334864494        5.5050750278       -0.9043883816
 C          0.3074577579        6.6946070962       -0.3043122550
 C          0.8871888513        6.6996116015        0.9625914595
 C          1.1225918693        5.5174634472        1.6316606466
 C          0.7795867300        4.3086736088        1.0291432017
 O          0.9989325737        3.1668434868        1.7229024127
 C          0.7200655609        1.9478223783        1.2014406588
 O          0.8997259829        0.9815678888        1.9346612861
 H         -5.6800433084       -1.7482015575       -1.3682744893
 H         -6.4174004933       -3.1326832794        0.5510314078
 H         -4.9460850554       -3.4088427462        2.5128084364
 H         -2.7296532226       -2.3009619604        2.5572718032
 H         -0.1165832027       -0.3024278436        1.6709496731
 H          0.1102170859        0.6632262645       -1.8786188319
 H          2.8923880621        0.8832147724       -0.3523067434
 H          4.4088442779       -1.2119916905       -0.0494784823
 H         -1.0716642912        2.1426034984       -2.2797706537
 H         -0.4798470358        5.4739702498       -1.8853468226
 H          0.1259968659        7.6266845430       -0.8162449177
 H          1.1528745353        7.6362461912        1.4278293415
 H          1.5644539274        5.4998086414        2.6149786964
