106
 energy: -158.432392596045 gnorm: 0.000042069869 xtb: 6.7.1 (edcfbbe)
C            0.49891745092111        1.82239928438049        4.46600989380279
C           -0.18266225308998        0.68109228292049        4.85350701037025
C           -1.25466575826982        0.22416645687162        4.11061120226368
C           -1.66767836236574        0.90454978893660        2.96786129145042
C           -2.76174743841758        0.39766681803265        2.12740882090668
C           -3.62297200235346        1.26933596208723        1.46935639303340
C           -4.59900437910223        0.79263781147519        0.60266388732427
C           -5.48801194994193        1.72663912670655       -0.10402715911708
C           -6.84634151012622        1.45495689400782       -0.24270446931463
C           -7.67450122277838        2.33525312340730       -0.91416422125818
C           -7.15680034795124        3.49559400735081       -1.46489811074055
C           -5.80556885447869        3.77206868264853       -1.33827765241696
C           -4.97745412739977        2.89674500342272       -0.66101027851097
C           -4.68359826372561       -0.57466366632357        0.36175318634113
C           -3.81054494736464       -1.45918513728374        0.98229064574358
C           -3.78730431949610       -2.87521808403514        0.57612264416690
C           -4.96696336011931       -3.60327756666326        0.50262709545347
C           -4.96401827310996       -4.93801614172070        0.13704939399863
C           -3.76410997096298       -5.56495600840128       -0.16123495419385
C           -2.58147169904219       -4.85657256587978       -0.09446533581741
C           -2.56528696421245       -3.50445984878368        0.25589210054634
C           -1.29857191957048       -2.78712512719632        0.34100787191929
C           -0.25481242644769       -3.33107141323309        1.09780499159460
C            0.81910379425201       -2.57384884572163        1.48499942126527
C            0.90931930835129       -1.19396447676526        1.12352045288854
C            1.90489215931827       -0.35891775744091        1.62060835305114
C            2.00226568657623        0.96168470225276        1.20258983315008
C            1.14218687055814        1.46872145014925        0.23115474883046
C            1.30561591918894        2.78789707437914       -0.33002132159895
C            2.57360424825282        3.50326639967330       -0.24653934071868
C            2.59335234531627        4.85480569015241        0.10553575387915
C            3.77781840500064        5.56030087493772        0.17127240453434
C            4.97575774215814        4.93093476805107       -0.12973601568538
C            4.97505918380898        3.59673237931731       -0.49736670027893
C            3.79356116793246        2.87163296707501       -0.56998203676433
C            3.81213153520354        1.45648504106850       -0.97958109755998
C            2.88821022385393        0.97123560286150       -1.89905697000900
C            2.75574517205906       -0.39371831280659       -2.12866764876455
C            1.65892604015312       -0.89482384612076       -2.96897539962503
C            0.97073614751345       -2.04837232937715       -2.59928559846361
C           -0.10651000717148       -2.49571484942923       -3.33979958275133
C           -0.51211617209450       -1.80234297915442       -4.46705621412791
C            0.17080513636428       -0.66060180061729       -4.85090264619228
C            1.24505826661533       -0.20885910543810       -4.10809762377748
C            3.61584679012889       -1.26986900512274       -1.47514720587069
C            4.59499106433676       -0.79870084419977       -0.60895848442670
C            5.48355155285125       -1.73793930316169        0.09131499674884
C            4.97155591710573       -2.90888587393945        0.64519600307106
C            5.79972881990153       -3.78990441585128        1.31496825581944
C            7.15237164366628       -3.51832993241151        1.43706563959918
C            7.67142156148211       -2.35702342481326        0.88964603522062
C            6.84325015411372       -1.47104404392588        0.22571470604816
C            4.68387478605842        0.56754497472901       -0.36355402120322
C            0.26155403205663        3.33239934189132       -1.08593853250704
C           -0.81252348325305        2.57524048649788       -1.47296203162686
C           -0.90255465207054        1.19515102750002       -1.11203788770765
C           -1.89769609437013        0.35990370661097       -1.60966345967067
C           -1.99476483242615       -0.96085126624880       -1.19205073244802
C           -1.13529906347068       -1.46784362717201       -0.22000403525232
C           -0.05625204629000       -0.66605045657165        0.22978801841012
C            0.06290154674779        0.66709253543506       -0.21827571857029
C           -2.88973762252242       -0.96841315267879        1.90193360309542
C           -0.98098881564771        2.05783146282426        2.59455121047665
C            0.09413799703646        2.51022799698142        3.33506863639196
H            1.34155848709851        2.17369824567111        5.04319867056810
H            0.12401496735368        0.14361925778537        5.73935677849557
H           -1.78825125054283       -0.65992455285166        4.42834162961365
H           -3.55220675055381        2.33099369934881        1.65400940718484
H           -7.25602324941889        0.55685004858878        0.19682656547593
H           -8.72846515649175        2.11662559454530       -1.00805264216526
H           -7.80384975043958        4.18153337509498       -1.99158712369986
H           -5.39650408096230        4.67383020425860       -1.77103205540645
H           -3.92061544948345        3.10548778609117       -0.57675047233958
H           -5.38946631615930       -0.94427385008288       -0.36827608723142
H           -5.89755007047265       -3.11867061205391        0.76205740330048
H           -5.89176425969129       -5.48869658916931        0.09115928623623
H           -3.75327359421858       -6.60635906160676       -0.44813630212292
H           -1.64904617549868       -5.34121189680814       -0.34723169463650
H           -0.35006130211551       -4.34717295894594        1.45675437278463
H            1.58805361640632       -2.99165734581855        2.11835303009392
H            2.61873394772851       -0.74861775091074        2.33191038284582
H            2.76826494594497        1.59737311030278        1.62057763042377
H            1.66242812846926        5.34126827276258        0.36033021007652
H            3.76993490432798        6.60135184701294        0.45953889465222
H            5.90485989379677        5.47938268951031       -0.08450883656662
H            5.90407401499380        3.11037411203173       -0.75913568243741
H            2.22860953840127        1.66142237449049       -2.40291922403832
H            1.26366160490901       -2.58190177769444       -1.70725872391632
H           -0.63670226142745       -3.38512135370806       -3.03095336555307
H           -1.35644018918363       -2.14965261079279       -5.04420215515985
H           -0.13652789679094       -0.11877990535792       -5.73387352900360
H            1.77970578881812        0.67554213222659       -4.42315466205345
H            3.54196302595642       -2.33071338239400       -1.66319252322127
H            3.91371246413588       -3.11391265897897        0.56440255163843
H            5.38964490493409       -4.69239783407916        1.74522390640982
H            7.79949472864809       -4.20886459553116        1.95762395608589
H            8.72646161470975       -2.14216956635934        0.98007696076447
H            7.25387959025205       -0.57219457957446       -0.21140760806486
H            5.39237788458886        0.93277481039761        0.36612240813382
H            0.35680075140829        4.34861719783282       -1.44457130860273
H           -1.58163709605371        2.99323142324851       -2.10599362123284
H           -2.61136389008124        0.74942349028730       -2.32123666432857
H           -2.76020133729800       -1.59667881404525       -1.61081702576635
H           -2.22897161168106       -1.65506225517615        2.40913217969184
H           -1.27338009116163        2.58708933677533        1.69980859977929
H            0.62338250606372        3.39919570799934        3.02335225962321
