  106
       -158.49739756
 C          0.5128680097        1.8930033583        4.3761168918
 C         -0.1834797004        0.7802959502        4.8165921731
 C         -1.2776105388        0.3184089673        4.1096544796
 C         -1.6980185846        0.9648788449        2.9502804079
 C         -2.8102045620        0.4454429263        2.1411440624
 C         -3.6677673781        1.3049941028        1.4624561809
 C         -4.6518333947        0.8105703056        0.6154726497
 C         -5.5406413961        1.7288244039       -0.1121549723
 C         -5.0251431748        2.8724808305       -0.7170730289
 C         -5.8526441322        3.7307530868       -1.4166366065
 C         -7.2077738279        3.4632863159       -1.5179985723
 C         -7.7301797281        2.3288898057       -0.9197413590
 C         -6.9027251970        1.4654326612       -0.2258971400
 C         -4.7401381198       -0.5614730024        0.4063347653
 C         -3.8680701011       -1.4345201980        1.0452491039
 C         -3.8380501515       -2.8532845578        0.6406468753
 C         -5.0124267690       -3.5922537885        0.5676080515
 C         -5.0030419214       -4.9081846634        0.1407545183
 C         -3.8093474115       -5.5033030918       -0.2293386656
 C         -2.6313689607       -4.7816657996       -0.1598646915
 C         -2.6253454532       -3.4587030181        0.2660906762
 C         -1.3542980542       -2.7233699588        0.3997589884
 C         -0.3719532534       -3.2449279489        1.2369043171
 C          0.7310306922       -2.4985084536        1.5979019046
 C          0.8743140363       -1.1827494417        1.1544811348
 C          1.9165215980       -0.3340698309        1.6213234318
 C          2.0489190591        0.9300517256        1.1611043216
 C          1.1663225895        1.4520146634        0.1710919161
 C          1.3561774420        2.7182368193       -0.4103147438
 C          2.6243719054        3.4569744050       -0.2681442692
 C          2.6235689766        4.7807556962        0.1552278017
 C          3.7994407964        5.5048098764        0.2345620179
 C          4.9980213875        4.9110852127       -0.1216707277
 C          5.0142873369        3.5943376976       -0.5458934157
 C          3.8418763526        2.8537172497       -0.6301256100
 C          3.8756845907        1.4353390042       -1.0355954318
 C          2.9681860788        0.9312686375       -1.9604050726
 C          2.8281729989       -0.4385391669       -2.1504583700
 C          1.7282423282       -0.9521243743       -2.9796495036
 C          1.0022135353       -2.0632025898       -2.5562823302
 C         -0.0843151234       -2.5140797275       -3.2810980293
 C         -0.4601502657       -1.8678460783       -4.4461235408
 C          0.2611181993       -0.7696688051       -4.8830729961
 C          1.3438166523       -0.3130195331       -4.1552115115
 C          3.6697701370       -1.3027864442       -1.4582582628
 C          4.6424926309       -0.8135426480       -0.5951603411
 C          5.5129535386       -1.7372395277        0.1476875270
 C          4.9796457593       -2.8789319617        0.7409716799
 C          5.7888581272       -3.7430219467        1.4546440883
 C          7.1433483119       -3.4832750098        1.5822351266
 C          7.6833752079       -2.3508838410        0.9958408774
 C          6.8741056683       -1.4816760875        0.2877163164
 C          4.7344564656        0.5581560758       -0.3845096060
 C          0.3773224500        3.2373604630       -1.2531135402
 C         -0.7252889441        2.4909383298       -1.6149037867
 C         -0.8714924114        1.1768520169       -1.1674640221
 C         -1.9170046549        0.3299196339       -1.6300843515
 C         -2.0513042352       -0.9331872871       -1.1674769382
 C         -1.1655879608       -1.4565452366       -0.1811190253
 C         -0.0696379454       -0.6640940709        0.2354668370
 C          0.0717056130        0.6587769540       -0.2474683575
 C         -2.9485844359       -0.9253230355        1.9553176708
 C         -0.9954888513        2.0896297077        2.5229122522
 C          0.1010077808        2.5473963886        3.2280662275
 H          1.3732569859        2.2473718627        4.9245377448
 H          0.1292352871        0.2686499625        5.7155272358
 H         -1.8215859080       -0.5437170864        4.4677267633
 H         -3.5867327465        2.3711581296        1.6144871865
 H         -3.9652777621        3.0733392126       -0.6526167821
 H         -5.4400034149        4.6119843618       -1.8866505624
 H         -7.8541571096        4.1357660421       -2.0625655846
 H         -8.7870382942        2.1170506307       -0.9945679176
 H         -7.3151698107        0.5871527546        0.2497893169
 H         -5.4486530075       -0.9457007733       -0.3136638869
 H         -5.9418354090       -3.1293326138        0.8674377863
 H         -5.9258004414       -5.4677752115        0.0962488522
 H         -3.7952641962       -6.5284849779       -0.5692181446
 H         -1.6979659800       -5.2411890265       -0.4536872807
 H         -0.5105579335       -4.2342325283        1.6514635786
 H          1.4694986100       -2.9127429607        2.2701533486
 H          2.5974179188       -0.7229144330        2.3653053939
 H          2.8261123058        1.5730782414        1.5464236372
 H          1.6864422901        5.2392535742        0.4386269674
 H          3.7799040797        6.5309461654        0.5712553956
 H          5.9191446863        5.4726259463       -0.0689609574
 H          5.9474824049        3.1322199110       -0.8350042155
 H          2.3187910176        1.6091775981       -2.4929614117
 H          1.2741545695       -2.5585959418       -1.6359121784
 H         -0.6448127547       -3.3690561440       -2.9313564526
 H         -1.3116029383       -2.2179322571       -5.0110910641
 H         -0.0232166264       -0.2652418422       -5.7953959407
 H          1.9076230873        0.5379937323       -4.5089879146
 H          3.5854288195       -2.3684295009       -1.6127777202
 H          3.9200517042       -3.0735571049        0.6562159260
 H          5.3622930681       -4.6224746491        1.9155766005
 H          7.7755786461       -4.1603919043        2.1376594372
 H          8.7399641848       -2.1454792596        1.0905680592
 H          7.3006127237       -0.6055086968       -0.1793247084
 H          5.4336488700        0.9389801496        0.3464065306
 H          0.5178372024        4.2254137253       -1.6700311730
 H         -1.4617802233        2.9039648029       -2.2900308559
 H         -2.5998275470        0.7195900945       -2.3718915522
 H         -2.8326515233       -1.5741597061       -1.5479084897
 H         -2.2885235907       -1.6002127299        2.4783300969
 H         -1.2931459139        2.5911609063        1.6139278248
 H          0.6420443761        3.4135857739        2.8752014911
