106
 energy: -158.494041417015 gnorm: 0.000254869105 xtb: 6.7.1 (edcfbbe)
C           -3.65519174971454       -1.12127180286121        4.64544966156158
C           -4.63327581211684       -1.69286877245757        3.84895562540166
C           -4.77147093021611       -1.30333818493453        2.53006931071345
C           -3.93691504147629       -0.32988372619103        1.98737521291034
C           -4.02904071702617        0.04953989173767        0.57037741939096
C           -3.84108778930125        1.36529509908853        0.16169998056548
C           -3.85762536753660        1.70306424794539       -1.18584422563017
C           -3.63981219838411        3.09751527377487       -1.59934327518268
C           -2.62336153792596        3.84821404605727       -1.01373165561957
C           -2.40758170271490        5.15791716051893       -1.39950230283095
C           -3.20698823178942        5.73894109174820       -2.36992860654655
C           -4.21867404655850        4.99956949777801       -2.95947285422376
C           -4.43068963140982        3.68647662831171       -2.58133275565054
C           -4.00948546493106        0.70024560592435       -2.13837211891814
C           -4.14059730868134       -0.62622309603038       -1.74956332437094
C           -4.04658487158191       -1.71280636328579       -2.74453109497253
C           -4.88341117138409       -1.77074053169353       -3.84963758555611
C           -4.76261028423474       -2.79413531975054       -4.77427699810170
C           -3.79693886274740       -3.77091800265931       -4.60237519205003
C           -2.94961908182321       -3.72038174859479       -3.50877727896090
C           -3.05437275541113       -2.69537679193139       -2.57918250604925
C           -2.17336853828715       -2.62548629379778       -1.39707174286041
C           -2.22146420073535       -3.63577649772980       -0.44343027848921
C           -1.61309173200485       -3.48510847835621        0.78601249445852
C           -0.95328481239953       -2.30044674505276        1.11303719859543
C           -0.41852037968912       -2.06053292530926        2.41054326737524
C            0.22663866454629       -0.90822130942160        2.70212093794478
C            0.41261887007222        0.10730299013258        1.71556968487427
C            1.17088003061796        1.26049699294502        1.96565437853617
C            1.95982199732041        1.42748351750599        3.20986074105257
C            1.42131022414438        1.98756570255518        4.35780417037558
C            2.21661123497661        2.20497549316917        5.47080939318141
C            3.56086938095279        1.87733062656107        5.43581636585279
C            4.10924621771100        1.31826097993341        4.29365524131732
C            3.31811848792281        1.07797080095271        3.18029640531720
C            3.84394562633141        0.47087036366791        1.94030696917273
C            4.81951540115399        1.09261410038726        1.17478472004061
C            5.17497952544550        0.57716041788984       -0.06970622260640
C            6.23948658057746        1.20947567183940       -0.86437719622135
C            7.17835065446740        0.42351637725996       -1.52861442202923
C            8.18919268688129        1.00792225807500       -2.26838755773077
C            8.27516715393872        2.38694787199385       -2.36190899453466
C            7.34422565345297        3.17774552292602       -1.70952126719879
C            6.33596978739602        2.59489522119521       -0.96435952715721
C            4.49407523948458       -0.52918956834244       -0.56870683895037
C            3.53113146479478       -1.17470810118537        0.19690527041478
C            2.71658634764373       -2.28076080364154       -0.33017420318176
C            2.13737184123086       -2.17616239602074       -1.59131774203192
C            1.29698373502512       -3.16752000357302       -2.06253847992702
C            1.03104372827803       -4.28124564490238       -1.28511709911911
C            1.60767019755536       -4.39758542576156       -0.03186342637939
C            2.43945265992595       -3.40272770853979        0.44535286753109
C            3.25994420926509       -0.69914708888317        1.47243510381979
C            1.29436076308531        2.23211172672526        0.97969486344627
C            0.71385904284717        2.06936466799780       -0.26127176521610
C            0.01742332799597        0.90048860791846       -0.57098068464983
C           -0.51242679741626        0.65695046331084       -1.86934914912445
C           -1.18952520107363       -0.48003987104138       -2.14704079586715
C           -1.39841116943763       -1.47871689572945       -1.15198857594167
C           -0.82205772319420       -1.29460156834627        0.12605208831205
C           -0.13780280305855       -0.09205655218813        0.42632852168549
C           -4.20738339187160       -0.93282740759401       -0.39536807122016
C           -2.96294738986671        0.24492550441483        2.80002775252921
C           -2.82197014141020       -0.15038916366285        4.11665708838431
H           -3.54329434032645       -1.43203375779622        5.67392353910137
H           -5.29028718967638       -2.44711274178512        4.25791118504021
H           -5.54342512645476       -1.74557535635935        1.91691054385032
H           -3.70835403244355        2.14151215490247        0.90101407609466
H           -1.98770515155895        3.39075273395553       -0.26891276675775
H           -1.61250293290746        5.72864371693825       -0.94139348338746
H           -3.04142108079777        6.76424438288261       -2.66670265246290
H           -4.84565899609521        5.44940660941168       -3.71578800177499
H           -5.22815384353283        3.11485205387078       -3.03420800491597
H           -3.95248918359787        0.94785612184741       -3.18882211864704
H           -5.64468574592274       -1.01370423651530       -3.97387399582609
H           -5.42354311447291       -2.82990540693414       -5.62783306973456
H           -3.70112153218830       -4.57080555761787       -5.32194487175108
H           -2.18425417407353       -4.47230406914496       -3.37829108060542
H           -2.79309550326102       -4.52896820549864       -0.65653665797415
H           -1.68416139830731       -4.27066016366431        1.52469016893259
H           -0.54742569187340       -2.82505642897623        3.16374054751647
H            0.62547790164224       -0.73407679072251        3.69222024645625
H            0.37523002425456        2.26010692586771        4.37293989429302
H            1.78757986657974        2.63906126126616        6.36208846793202
H            4.18393469232056        2.05713016473865        6.29961519545370
H            5.15685151970502        1.05446360309405        4.26419215022293
H            5.30356848244469        1.98408187497032        1.54728923269913
H            7.12320113893518       -0.65246403156995       -1.44557371610303
H            8.91456137939310        0.38572320231050       -2.77260023893385
H            9.06430127168957        2.84330776985759       -2.94118427032456
H            7.40411298716535        4.25409488303815       -1.78348414512934
H            5.60294369818644        3.21638500202616       -0.47053790345128
H            4.71563799360556       -0.88829914925018       -1.56336284083345
H            2.32565005534861       -1.29706462606682       -2.19065374745787
H            0.84269580966222       -3.06668856667495       -3.03761536656203
H            0.37376863825431       -5.05583266687897       -1.65166941850810
H            1.40411417659152       -5.26594495974177        0.57792143976401
H            2.89056806814624       -3.49891391784133        1.42257600362018
H            2.54573560528300       -1.22119195500508        2.08848898554196
H            1.87471397213064        3.11943146215106        1.19187220712555
H            0.82282083732329        2.83502329689547       -1.01639309532946
H           -0.35787677979187        1.40810508015882       -2.63134493314257
H           -1.57206186179728       -0.65998937811824       -3.14131598396282
H           -4.33770304019920       -1.95974924254469       -0.08965414325148
H           -2.29376770885607        0.98482949241043        2.38582240415203
H           -2.05373758773529        0.29536978354045        4.73179229957894
