146
 energy: -190.304141729635 gnorm: 0.000042848207 xtb: 6.7.1 (edcfbbe)
C           -3.14469429113932       -6.32010016684285        0.90137129077298
C           -1.89949850083676       -6.81492488712071        0.15023903311056
C           -1.33663834872284       -8.06908535411665        0.83222650677108
C           -2.31904491295950       -7.19296930792007       -1.27267926863101
C           -0.85826371048482       -5.70833980346999        0.17897196979854
C           -0.37859334203265       -5.25064537704347        1.40485115439750
C            0.50400714714696       -4.19184688510463        1.48788437691174
C            0.93713702758390       -3.56007016954430        0.32999513552575
N            1.73782518089437       -2.38259355012581        0.37903548839226
C            3.10566581705741       -2.47695268699696        0.54630686001838
C            3.66695017305356       -3.72874551047721        0.82595920228699
C            5.00967337401737       -3.85726957918980        1.08229917822097
C            5.85705237759807       -2.74592240072906        1.09118630959047
C            7.32562482449337       -2.93056181226962        1.44108527167006
C            8.11748255120387       -1.62184712185400        1.37824463180554
C            7.96095504492635       -3.91648698496549        0.45033867013019
C            7.43136608627919       -3.48766699466998        2.86768421549607
C            5.29757452390042       -1.52480881852793        0.77042167263679
C            3.94476907823676       -1.34569063170852        0.45022923691835
B            3.30982964532402       -0.01090837553805       -0.00276587705348
C            3.95318819000483        1.32065524233444       -0.45335006255806
C            5.30872042273964        1.49391488668254       -0.76521697872435
C            5.87479699101272        2.71206481733525       -1.08571669608833
C            7.34698222556750        2.89081516704535       -1.42331356489432
C            7.46751962689915        3.44382682946450       -2.85030789968724
C            7.97647525109969        3.87724084115690       -0.42931968965136
C            8.13394620510292        1.57970393172600       -1.34986152165408
C            5.03109905349096        3.82624366520003       -1.08835890995800
C            3.68630845064016        3.70338679085475       -0.84039216678875
C            3.11925257078511        2.45498873331873       -0.55728038989190
N            1.75055610208750        2.36763516538398       -0.39435594356735
C            0.95536559763940        3.54944534437775       -0.35687091522656
C            0.51518755574378        4.16331081484824       -1.52172432126803
C           -0.36453928541522        5.22522864766894       -1.44955402318784
C           -0.83363037110031        5.70422261137800       -0.22770848040053
C           -1.87328316885774        6.81250312846543       -0.20935394741833
C           -2.27625598334570        7.21951303557105        1.21033574342035
C           -1.31754133572802        8.05229889188700       -0.92271315097259
C           -3.12721144762593        6.30375857460218       -0.93628522178229
C           -0.34696649323024        5.10709366708443        0.92865593607703
C            0.53548901706505        4.04312795716828        0.86856416107254
C            1.06989446135473        1.18262052071011       -0.22510074351079
C           -0.32326126742464        1.17061137007692       -0.28358207316134
C           -1.01307513207053        0.00124536308724        0.00073805771356
N           -2.41341953385079        0.00745187955540        0.00726030535207
C           -3.23211963624372       -0.97456958434888       -0.51641651567844
C           -2.92211424772272       -2.14007973955244       -1.20317749172697
C           -3.96135339903682       -2.94017894897009       -1.63067446709204
C           -5.30943061507066       -2.62342670957884       -1.41550982612205
C           -6.38123054213182       -3.57597562812976       -1.92635399289260
C           -7.79728833697504       -3.10343714171148       -1.58574842953916
C           -6.26926467625971       -3.68474006807272       -3.45374040498697
C           -6.17845085258989       -4.95925177174740       -1.29210776806311
C           -5.60946531046318       -1.44019516759157       -0.76210327426453
C           -4.58301482133982       -0.61646247148925       -0.31836568432953
C           -4.57366308646439        0.65093577454971        0.35665271214051
C           -5.58787784170438        1.48362243973911        0.81178504888324
C           -5.27030580164540        2.66439640769434        1.46135248578558
C           -6.32790837111335        3.62616180857579        1.98446054607384
C           -7.75206432041814        3.16167025732347        1.66741412548448
C           -6.19246013315016        3.74060796676589        3.50955368588758
C           -6.12548949336531        5.00545207394874        1.34151009098302
C           -3.91714787728215        2.96979273018243        1.66044664888445
C           -2.88982208861681        2.16023897191339        1.22206874898648
C           -3.21752422778003        0.99698253366208        0.53967238491636
C           -0.32928831914035       -1.17303908352247        0.27932991879333
C            1.06355301905229       -1.19310465987068        0.21446594742357
C            1.79247473469529       -0.00716694872116       -0.00520776335996
C            0.50627775524407       -4.03244374627615       -0.90012208031487
C           -0.37941609211234       -5.09296547237253       -0.97107883301288
H           -3.93915814437620       -7.06080967927748        0.84094985380461
H           -2.92774829368658       -6.13893207579229        1.95046011736018
H           -3.50265342214939       -5.39038597584582        0.46340521588188
H           -1.07611395596337       -7.87568824656338        1.86899742412663
H           -0.44293900278072       -8.41045375413231        0.31370062653139
H           -2.07426880617180       -8.86839265268647        0.81115463665898
H           -2.75483413209760       -6.34148853400074       -1.78985696161408
H           -3.06901402604775       -7.98034286758695       -1.23224908597255
H           -1.47306925999899       -7.56412357246491       -1.84681339621421
H           -0.71293841918394       -5.71122691622993        2.32191757316156
H            0.84455779459244       -3.83419014472189        2.44862512078837
H            3.03743375462365       -4.60636506400635        0.85158182850754
H            5.39769455421564       -4.84177231080469        1.29813769421076
H            7.71986148669545       -0.88827055926209        2.07593584948437
H            8.10088400308981       -1.20705814061521        0.37311036969171
H            9.15541540210420       -1.81183296116473        1.64566214545115
H            9.01932466951766       -4.04144976103785        0.67086495317043
H            7.86183631733031       -3.54252016475889       -0.56678022727998
H            7.48663943349950       -4.89261391983514        0.50156385506036
H            6.97461636068305       -2.79756153932573        3.57433682983145
H            6.92777842170194       -4.44664189055755        2.95530783662321
H            8.47537365287807       -3.62408740180856        3.14317806817483
H            5.91236787672776       -0.64218850234018        0.78181094894633
H            5.92048597479399        0.60914061931556       -0.76982111920637
H            7.01305668657213        2.75437448450239       -3.55905812439174
H            8.51449157202469        3.57409165712666       -3.11739565192464
H            6.96979324522518        4.40522701062844       -2.94450380000433
H            7.50469191619701        4.85428279505332       -0.48622919925312
H            7.86817752483789        3.50542907991666        0.58765346226373
H            9.03689321025726        3.99946385832588       -0.64137626578308
H            7.74057911787800        0.84577863035857       -2.04959593603446
H            9.17499619352129        1.76572891577306       -1.60780520750692
H            8.10647858443365        1.16732951329889       -0.34396858913248
H            5.42387067466298        4.80834879208146       -1.30649053446645
H            3.05947506446945        4.58265942189360       -0.87500374482075
H            0.84757651005992        3.78882355278346       -2.47889841313570
H           -0.70531249246361        5.67099084920368       -2.37155714646585
H           -1.42304057526380        7.59960472530181        1.76767268221024
H           -3.02477737173193        8.00784456692187        1.16262739637579
H           -2.70842633341234        6.37955754851682        1.74892136154679
H           -1.06962502753075        7.83837369066844       -1.95852391444527
H           -0.41747390948296        8.40295552362435       -0.42171009519510
H           -2.05426220514004        8.85259620132220       -0.90866883659452
H           -3.48245310088215        5.38480635272204       -0.47403820714189
H           -3.91951197053879        7.04741020113451       -0.88412402057513
H           -2.92139943182966        6.09873357159847       -1.98324240898251
H           -0.66064218380890        5.45117803172727        1.90032024339579
H            0.88624752606143        3.57231152949868        1.77578047180023
H           -0.87578766726589        2.05248540413863       -0.56102681888215
H           -1.90154760677343       -2.41922344559055       -1.41457358556219
H           -3.70916421473627       -3.84582586964872       -2.16189425138996
H           -7.93185551390637       -3.01873961446954       -0.50982263830084
H           -8.52089226418394       -3.82513742089083       -1.96008932058146
H           -8.01165020945124       -2.14335631181501       -2.04926131879314
H           -6.39671076946548       -2.70511781246231       -3.90974964224795
H           -5.30023905472613       -4.07458000342426       -3.75315367924365
H           -7.03887333064625       -4.34953069629749       -3.84100292552997
H           -6.96123629694592       -5.64051980586628       -1.61972603481947
H           -5.22021476872234       -5.38782582078155       -1.57084031404995
H           -6.21745065224859       -4.88478170631922       -0.20719281882092
H           -6.62716362238934       -1.13247639925234       -0.58831784995996
H           -6.61009423071580        1.18458671681390        0.64967934444434
H           -7.96474593535583        2.20385303934324        2.13637389260172
H           -7.90438309239237        3.07559266121052        0.59397432057605
H           -8.46516578463923        3.88860090490649        2.05165098133752
H           -5.21679564560801        4.12571264427458        3.79302813190415
H           -6.95208173966363        4.41185459654703        3.90532687642934
H           -6.31921700289059        2.76375265407831        3.97163438065214
H           -6.89638446060579        5.69436442193047        1.68114678324426
H           -6.18522411884605        4.92759493550246        0.25777890132270
H           -5.15863678597510        5.42680929258619        1.60085603514391
H           -3.65091794227950        3.87384112693987        2.18754491924180
H           -1.86464320981016        2.43070686853013        1.42201729224119
H           -0.88525682092116       -2.05207619032754        0.55911770070728
H            0.85136019348196       -3.54762248042933       -1.80213356978983
H           -0.70140244903639       -5.42013148074798       -1.94587473750792
