146
 energy: -190.303505560210 gnorm: 0.000039563452 xtb: 6.7.1 (edcfbbe)
C           -1.97695461386029       -7.54884108330033        1.62940759079290
C           -1.58629596722592       -7.02386675922733        0.24546205778875
C           -0.88992719116079       -8.15772462331957       -0.51994420902444
C           -2.86929751043201       -6.60738999108140       -0.48798665671105
C           -0.65522194564777       -5.82441641432217        0.31404053965860
C           -0.19365129750956       -5.29205912861231        1.51213743416888
C            0.62545628863264       -4.17665466736710        1.53551501643453
C            1.00758558467366       -3.56709265016043        0.35057511537734
N            1.79181654411212       -2.37741004717211        0.35065575175111
C            3.16379275682722       -2.46895974401736        0.49451673178352
C            3.74144693904853       -3.71681757375494        0.75023856091752
C            5.09387395209148       -3.84414483108427        0.97305951317014
C            5.93034043941740       -2.72906105228514        0.97725482607066
C            7.42246946778588       -2.80758729926559        1.26307127199807
C            7.75311715834119       -1.92263316304611        2.47314056474179
C            8.19453975518188       -2.31072939982337        0.03228450858865
C            7.88817518340117       -4.23267578282755        1.57376576867523
C            5.35022675545552       -1.50674328804423        0.68603106231402
C            3.99479965325492       -1.33109134266440        0.39324160649827
B            3.34560240976069        0.00162302706517       -0.03834007837216
C            3.98297722483305        1.33420337367724       -0.48753330333658
C            5.32961026326256        1.50933392565813       -0.81868190110617
C            5.90218654423242        2.73175927151148       -1.12399775725054
C            7.38526656657818        2.80935971360113       -1.45376906957681
C            7.67656997582638        1.93255003433407       -2.67978759695042
C            7.84468163107882        4.23573189060899       -1.76787335916252
C            8.19350590911810        2.30183524679458       -0.25087845041639
C            5.06712703217524        3.84749579960271       -1.09356092991873
C            3.72141450733880        3.72070615773113       -0.83292757871955
C            3.15015686634979        2.47272252660742       -0.56380353742369
N            1.78254413391396        2.38151361474101       -0.38277768435913
C            0.99867239998121        3.57115836869555       -0.35976176472283
C            0.58842122846385        4.18524983642908       -1.53291538070499
C           -0.22988583485481        5.30049739065448       -1.48575447142012
C           -0.66286525841638        5.82818997764892       -0.27498771633317
C           -1.59245931563420        7.02696115815766       -0.17965290120906
C           -2.85964887022254        6.60527747524659        0.57792270559547
C           -0.88076279355384        8.15659841192493        0.57784755510114
C           -2.01212507314507        7.56022718144546       -1.55188331028815
C           -0.22481303963731        5.20922885789105        0.89381793127026
C            0.59302976668768        4.09777157983243        0.85888378607838
C            1.10425438070991        1.19510072143905       -0.21145584486169
C           -0.28974634449955        1.18237351707197       -0.24129860591791
C           -0.97154725712898        0.00158351339384        0.01590576676865
N           -2.37236900369623        0.00021337572401        0.02994333209372
C           -3.18763406000999       -0.95275860999558       -0.54968309046674
C           -2.87386185407062       -2.07498071698497       -1.30333998421473
C           -3.91095135346395       -2.84570436137366       -1.78701723165067
C           -5.26019364637423       -2.53984323040500       -1.56255352546650
C           -6.33076977411222       -3.44978047887393       -2.14807126821911
C           -6.19713514974812       -3.46193516438439       -3.67749581691056
C           -6.14584277052868       -4.87183699892659       -1.60071174028113
C           -7.74882722900439       -2.98926363989442       -1.79917183757968
C           -5.56371220503298       -1.40471139129619       -0.83052795966780
C           -4.53939831123773       -0.61243865999314       -0.32888695189852
C           -4.53402417637936        0.60746844839354        0.42785272388501
C           -5.55110701266791        1.39744524624805        0.94743434703317
C           -5.23731557984143        2.53391042571756        1.67302824893940
C           -6.29961680303140        3.44193643168725        2.27634218816801
C           -6.12929264940373        4.86310157617690        1.72195480954947
C           -7.72249320146755        2.97612874498865        1.95513097161211
C           -6.13767662198712        3.45853830267438        3.80297692782311
C           -3.88501236345759        2.84338368780232        1.87281694467664
C           -2.85482655493821        2.07493356878844        1.37100618332257
C           -3.17930931558459        0.95133145969999        0.62396569673058
C           -0.28338524255744       -1.17866048424712        0.25837726702321
C            1.10946903117057       -1.19118220415056        0.19527725964152
C            1.82977933304951        0.00193059265890       -0.01749150323306
C            0.57333563464474       -4.09849116605870       -0.85605712550418
C           -0.24491620746720       -5.21014691947823       -0.86723954992753
H           -2.64843489675165       -8.39772314674062        1.51778489362206
H           -1.10341848352972       -7.88466880787221        2.18348059744252
H           -2.49463341403173       -6.78488394852256        2.20481597738630
H            0.02543357755278       -8.44976008019257       -0.00925933599812
H           -0.63310774907396       -7.85478798491840       -1.53129752760784
H           -1.54363016712881       -9.02524167745604       -0.57950174046580
H           -3.58194805090903       -7.42936474377651       -0.49508468725638
H           -2.66171208498917       -6.32987943413177       -1.51771629564985
H           -3.32733036459381       -5.75507869642751        0.00977011920716
H           -0.47480443956038       -5.73378817830012        2.45385915455536
H            0.96472445030947       -3.76793009745662        2.47617759181256
H            3.12132479385001       -4.60076409430166        0.78211910955594
H            5.48447479479996       -4.83097872773132        1.16253072780475
H            7.19995179008858       -2.26028215089650        3.34724149680179
H            7.49358511210143       -0.88388384930542        2.28806549161041
H            8.81704555125959       -1.97324951650896        2.69658564710947
H            9.26667509617357       -2.38050632666350        0.20548293804298
H            7.95447197594712       -1.27525326510277       -0.19254561734379
H            7.94456344923468       -2.91435661323112       -0.83805297535518
H            7.37728855801364       -4.62841574822335        2.44868382513639
H            7.71281006253625       -4.89487268866932        0.72886515392355
H            8.95672156618771       -4.22918781753736        1.78103356683234
H            5.96556151821235       -0.62225165483951        0.70161234707093
H            5.94345493735400        0.62435007737017       -0.85376905284895
H            8.73347210626721        1.98144466550734       -2.93473748692563
H            7.09854159231129        2.27848298254288       -3.53435159720538
H            7.41897911884505        0.89332601565040       -2.49455184748134
H            7.31015798358839        4.63836597339220       -2.62533927798446
H            7.69436704223506        4.89235942302254       -0.91383683659616
H            8.90694610253570        4.23185255645878       -2.00524375334526
H            7.95953182889206        1.26470495610698       -0.02733835335546
H            9.25999197471759        2.37220596397010       -0.45581820624822
H            7.97054432023532        2.89855451481566        0.63147520033286
H            5.45304585990075        4.83444365289592       -1.29184165987249
H            3.10137397072201        4.60519280806876       -0.84539515573688
H            0.90512232794631        3.78016138668292       -2.48297436669392
H           -0.53339643745012        5.74578780617931       -2.41882041246192
H           -2.63008397684759        6.31982125217774        1.60081487621296
H           -3.57163932240608        7.42737403682257        0.60645152089920
H           -3.32851813134333        5.75688171950709        0.08355448618368
H           -1.53308754044793        9.02374814341222        0.65523191459769
H            0.02417395183405        8.45146298504076        0.05048803116751
H           -0.60375365480832        7.84829454127048        1.58221323560675
H           -2.54272684554734        6.80009607536639       -2.12053731311512
H           -2.68029175304092        8.40897901834582       -1.42103777890279
H           -1.15025397244372        7.89850092263272       -2.12249869736139
H           -0.52868262524590        5.59199757252267        1.85611622259517
H            0.91531436274417        3.62272879391194        1.77427546568576
H           -0.84909500788664        2.07181379462242       -0.48010445676366
H           -1.85126074064066       -2.34126947826385       -1.52235538824865
H           -3.65693781806924       -3.71839956616408       -2.36939959899028
H           -6.31258182906903       -2.45451145247360       -4.07200731974021
H           -6.96469586221570       -4.09578695869810       -4.11718035259730
H           -5.22604916902908       -3.83827620111985       -3.98693929769484
H           -5.18493579373327       -5.28635167196610       -1.89025463064903
H           -6.20169436482438       -4.86622349468478       -0.51405359549657
H           -6.92723758176796       -5.52573857445319       -1.98286268342656
H           -8.47124299773593       -3.67770385343636       -2.23366089029734
H           -7.90134330790647       -2.97697752054792       -0.72238840423288
H           -7.94816583376686       -1.99800732324594       -2.19951744062772
H           -6.58209266715508       -1.10931961407572       -0.64007419363978
H           -6.57199192012864        1.09935325339087        0.77551644033815
H           -6.20557739935297        4.85443963525497        0.63655156328255
H           -5.16430738403626        5.28112037612640        1.99230854971973
H           -6.90531368472383        5.51570993277772        2.11705214046561
H           -7.91089907320129        1.98493968161316        2.36090812394364
H           -8.43885451874437        3.66297348404275        2.40199887272266
H           -7.89536402283514        2.96140910599201        0.88145957719997
H           -6.90004790819706        4.08977136371501        4.25528123043265
H           -5.16291356001373        3.84040552067559        4.09348944622324
H           -6.24089883079914        2.45156310290863        4.20198985644717
H           -3.62282640404157        3.71728333278067        2.44974480111915
H           -1.82907682380043        2.34412311226448        1.57102943787943
H           -0.83679601497093       -2.06814445560595        0.51046102636622
H            0.87390572891915       -3.62710227672441       -1.78068151722956
H           -0.57126799484504       -5.59684341445305       -1.82055478519130
