  146
       -190.30401496
 C         -3.1549584853       -6.3099706365        0.8905904709
 C         -1.9095767736       -6.8044025518        0.1395922104
 C         -1.3482604316       -8.0602059901        0.8199855414
 C         -2.3278347106       -7.1795653258       -1.2845107166
 C         -0.8664670616       -5.6997107241        0.1713541019
 C         -0.3910256335       -5.2420229426        1.3988837131
 C          0.4949797730       -4.1863568543        1.4845947138
 C          0.9356518988       -3.5578448319        0.3277781920
 N          1.7377830659       -2.3814147990        0.3789941328
 C          3.1051625949       -2.4763992197        0.5486101312
 C          3.6642916449       -3.7284606141        0.8311903594
 C          5.0065339582       -3.8583316601        1.0889272827
 C          5.8555519897       -2.7481922466        1.0955442115
 C          7.3237808956       -2.9353410235        1.4459961464
 C          8.1209141602       -1.6305102638        1.3709649683
 C          7.9552664673       -3.9325417749        0.4640169539
 C          7.4280396504       -3.4805320893        2.8773667164
 C          5.2977926516       -1.5265578731        0.7733868771
 C          3.9452218032       -1.3458477723        0.4524762083
 B          3.3106602386       -0.0105298019       -0.0005195307
 C          3.9543721770        1.3219439093       -0.4477305222
 C          5.3104028952        1.4959033033       -0.7569686392
 C          5.8776927381        2.7154997147       -1.0696192646
 C          7.3505284529        2.8950569968       -1.4037695058
 C          7.4747020839        3.4824202120       -2.8166412809
 C          7.9842162791        3.8535520843       -0.3854068762
 C          8.1306847727        1.5783232580       -1.3632704247
 C          5.0352583141        3.8306336382       -1.0642001414
 C          3.6895718988        3.7069138907       -0.8214953577
 C          3.1208397634        2.4568579954       -0.5491053055
 N          1.7513788226        2.3688800988       -0.3934856479
 C          0.9558820225        3.5507345232       -0.3634706511
 C          0.5222444890        4.1610359914       -1.5326641771
 C         -0.3570937719        5.2238530163       -1.4687658220
 C         -0.8318775097        5.7077182771       -0.2510704115
 C         -1.8707192805        6.8169571960       -0.2416298283
 C         -2.2748991714        7.2340001408        1.1748130891
 C         -1.3136229356        8.0515455360       -0.9629160594
 C         -3.1242397720        6.3038986973       -0.9662400064
 C         -0.3514528512        5.1142955286        0.9098694410
 C          0.5301304033        4.0491907213        0.8580433778
 C          1.0707452070        1.1836325649       -0.2259536347
 C         -0.3223823993        1.1712944393       -0.2874237586
 C         -1.0123368494        0.0020161777       -0.0031858486
 N         -2.4126577182        0.0072998067        0.0029598633
 C         -3.2310149366       -0.9758812192       -0.5188593545
 C         -2.9207025028       -2.1416083337       -1.2051377930
 C         -3.9596917855       -2.9433061476       -1.6302359255
 C         -5.3078417804       -2.6274893406       -1.4140983678
 C         -6.3791101827       -3.5832185855       -1.9204037166
 C         -7.7960631417       -3.1019793862       -1.5961631818
 C         -6.2582898999       -3.7144223767       -3.4452031942
 C         -6.1835481183       -4.9577383596       -1.2652691024
 C         -5.6082514504       -1.4444721218       -0.7603851134
 C         -4.5820509483       -0.6194670693       -0.3182992635
 C         -4.5729137482        0.6476185318        0.3574410550
 C         -5.5868860714        1.4784698740        0.8165358817
 C         -5.2687090056        2.6588532593        1.4664870244
 C         -6.3255632486        3.6183502358        1.9952869586
 C         -7.7504052723        3.1523249905        1.6833946385
 C         -6.1834949077        3.7294143473        3.5199053359
 C         -6.1277176404        4.9988860473        1.3537519050
 C         -3.9154833032        2.9662044488        1.6618306511
 C         -2.8884121004        2.1584490271        1.2197730205
 C         -3.2168299092        0.9954510019        0.5374413188
 C         -0.3289028393       -1.1718988740        0.2772126712
 C          1.0639332775       -1.1918963812        0.2140834092
 C          1.7932226178       -0.0060035361       -0.0045017749
 C          0.5084613948       -4.0298553455       -0.9037185549
 C         -0.3806615502       -5.0873354431       -0.9773298506
 H         -3.9524557292       -7.0467593207        0.8218935628
 H         -2.9408017323       -6.1381582738        1.9417917706
 H         -3.5075885863       -5.3752294445        0.4590071586
 H         -1.0830672972       -7.8668233392        1.8555774527
 H         -0.4575834539       -8.4045358921        0.2982676027
 H         -2.0885361829       -8.8571389628        0.8021477558
 H         -2.7622619240       -6.3267897986       -1.8007834111
 H         -3.0783549025       -7.9665791452       -1.2464329511
 H         -1.4814907256       -7.5503411642       -1.8583440414
 H         -0.7317040674       -5.6996628073        2.3150741570
 H          0.8321009721       -3.8280998457        2.4463200792
 H          3.0331505591       -4.6048818242        0.8581351349
 H          5.3928537922       -4.8428503759        1.3076542033
 H          7.7289920655       -0.8900196174        2.0645323065
 H          8.1024819452       -1.2232700355        0.3627543510
 H          9.1589560799       -1.8229524222        1.6362701956
 H          9.0135790575       -4.0580916809        0.6846132798
 H          7.8559753758       -3.5682473112       -0.5565613572
 H          7.4788633284       -4.9070484404        0.5252423744
 H          6.9774239613       -2.7811183264        3.5787618472
 H          6.9177278804       -4.4350772356        2.9740607484
 H          8.4715655251       -3.6219264732        3.1522430525
 H          5.9139940332       -0.6448498575        0.7843421433
 H          5.9209356850        0.6103183003       -0.7658855958
 H          7.0140139383        2.8151648545       -3.5422653535
 H          8.5225052719        3.6104182507       -3.0812536994
 H          6.9857718044        4.4501362478       -2.8867166774
 H          7.5092703530        4.8305175708       -0.4106066230
 H          7.8830761137        3.4518162622        0.6209031942
 H          9.0430421536        3.9843860608       -0.6002406303
 H          7.7300092516        0.8627121337       -2.0779568257
 H          9.1716797498        1.7645573749       -1.6209327958
 H          8.1051775152        1.1428914291       -0.3669577796
 H          5.4297922682        4.8144093920       -1.2714221766
 H          3.0636255096        4.5869993808       -0.8510714995
 H          0.8596103168        3.7831137784       -2.4867271651
 H         -0.6927329287        5.6666362830       -2.3940733683
 H         -1.4218107985        7.6170475878        1.7303799522
 H         -3.0226895578        8.0226084530        1.1208858555
 H         -2.7085995313        6.3982188094        1.7186533540
 H         -1.0736969661        7.8331301126       -1.9996503781
 H         -0.4086376699        8.3996770338       -0.4690885508
 H         -2.0463364356        8.8554354115       -0.9468667734
 H         -3.4831925778        5.3908252591       -0.4952058473
 H         -3.9146854720        7.0501836325       -0.9238786221
 H         -2.9162403279        6.0872305224       -2.0104432277
 H         -0.6692805756        5.4623486394        1.8787794302
 H          0.8759365703        3.5814509472        1.7687503919
 H         -0.8746017458        2.0529142557       -0.5663090819
 H         -1.9001326502       -2.4199202894       -1.4176205239
 H         -3.7073074504       -3.8498042496       -2.1599565228
 H         -7.9402819726       -3.0085681238       -0.5222529568
 H         -8.5193556002       -3.8235196800       -1.9714402077
 H         -8.0017120135       -2.1445159185       -2.0689537597
 H         -6.3808665695       -2.7414337804       -3.9164895405
 H         -5.2889371198       -4.1112906584       -3.7339618029
 H         -7.0273510249       -4.3830882186       -3.8269930465
 H         -6.9643085646       -5.6427596882       -1.5898166194
 H         -5.2233621942       -5.3905883166       -1.5300684947
 H         -6.2315158616       -4.8680145646       -0.1819474901
 H         -6.6260645900       -1.1380520418       -0.5849501350
 H         -6.6092488021        1.1784694012        0.6571687389
 H         -7.9602951058        2.1944097514        2.1533981388
 H         -7.9064725792        3.0657699793        0.6105546096
 H         -8.4628672240        3.8786605530        2.0699431126
 H         -5.2098538672        4.1222399234        3.7998158535
 H         -6.9469342766        4.3925891428        3.9218702669
 H         -6.2992086534        2.7499821989        3.9794557757
 H         -6.8946554800        5.6878917925        1.7020112998
 H         -6.1975295071        4.9234098600        0.2704530957
 H         -5.1579975015        5.4187403770        1.6047223394
 H         -3.6491424313        3.8699444079        2.1893355230
 H         -1.8630113088        2.4297264976        1.4173403675
 H         -0.8854908725       -2.0505016994        0.5569380368
 H          0.8589475352       -3.5468264763       -1.8046156248
 H         -0.6998122608       -5.4141504315       -1.9531842365
