146
 energy: -190.215040090901 gnorm: 0.000072143741 xtb: 6.7.1 (edcfbbe)
C           -3.07353953126296       -6.38263777880972        0.96326806577101
C           -1.84793505760306       -6.84040277572888        0.15824871102594
C           -1.24617618639242       -8.10379861109256        0.78822854434040
C           -2.30870060456282       -7.18909352675357       -1.25937576368543
C           -0.82326477741339       -5.71888476682142        0.18081176403959
C           -0.28549921587712       -5.30379522761230        1.39842924541548
C            0.59020087603964       -4.23995398410734        1.48049954143426
C            0.95353398044057       -3.55206791974781        0.32889865933692
N            1.75298267574291       -2.37839673015062        0.37963640966750
C            3.12068522710126       -2.47320757461552        0.54669863644028
C            3.68361930395852       -3.72332972486934        0.81155490572670
C            5.03590794661694       -3.85320119541379        1.06417147677451
C            5.87155639183024       -2.73240962273152        1.08195956308738
C            7.34098246576854       -2.90969327823020        1.42434928746428
C            8.12763944809153       -1.59735330572649        1.37416261746907
C            7.97912329236468       -3.88326320868132        0.42269531391798
C            7.45152952720345       -3.48167411198616        2.84529554695970
C            5.30849616888049       -1.50474977681876        0.77070604211079
C            3.95587365432621       -1.32362955550143        0.44228636230102
B            3.31770011090999        0.00534202277367       -0.00173842528418
C            3.95076949738140        1.33678676331777       -0.44554513653208
C            5.30290165280409        1.52319102007763       -0.77286456891317
C            5.86129102565323        2.75290248929984       -1.08442173253321
C            7.33051035928002        2.93583824194794       -1.42474602683769
C            8.12201719086761        1.62642962159017       -1.37400778127652
C            7.44136061308661        3.50892191976415       -2.84520181218866
C            7.96336449077163        3.91127890141451       -0.42154666912933
C            5.02098567680929        3.87025817628719       -1.06841333499874
C            3.66900564862827        3.73504464142438       -0.81695418019333
C            3.11098640270961        2.48290399042840       -0.55112245209996
N            1.74364646823674        2.38286777134890       -0.38433165128718
C            0.93971860741652        3.55370447561139       -0.33513148491815
C            0.57003293332707        4.23600453145479       -1.48799193931022
C           -0.30991431328733        5.29646076560584       -1.40696225580600
C           -0.84567106569730        5.71354026972679       -0.18915779713649
C           -1.87508611359955        6.83074910192537       -0.16729716045090
C           -2.33276389703810        7.18250746001111        1.25057222996064
C           -1.28083711180679        8.09447704860628       -0.80370289802693
C           -3.10125419294961        6.36486195805306       -0.96677426730345
C           -0.43194681848050        5.04615129898581        0.95821812570238
C            0.44494147328004        3.97953235750491        0.89006787897865
C            1.06660818807599        1.18399597307594       -0.21548592021203
C           -0.32513448781881        1.16812637477801       -0.29271545862031
C           -1.03081638292194       -0.00287915857127        0.00043981753712
N           -2.42678501707000       -0.00527246654300        0.00169573686006
C           -3.23864035935356       -1.00046487067514       -0.51023946149653
C           -2.91884330417715       -2.17602245849312       -1.17389444792781
C           -3.95020298450027       -2.99137717016697       -1.59135876622335
C           -5.30230066605306       -2.68007108100877       -1.38477659761088
C           -6.36530035032797       -3.65009408673607       -1.88063071620052
C           -7.78623066506278       -3.17881928264335       -1.55905415490800
C           -6.24452882281938       -3.79288125432380       -3.40458020996059
C           -6.15787367213370       -5.01744814536365       -1.21405559945527
C           -5.61283735444367       -1.48854846505862       -0.75329737535754
C           -4.59430043124981       -0.64689335064105       -0.32235941096742
C           -4.59578589942023        0.63097561885509        0.32643169153014
C           -5.61623147731675        1.47014717930919        0.75769174187618
C           -5.30839459445760        2.66235040667560        1.38921383608736
C           -6.37364211737416        3.62981801930405        1.88524793484883
C           -7.79354274988119        3.15446039919288        1.56514265879623
C           -6.25203912310054        3.77401776243570        3.40900299313665
C           -6.17051064831955        4.99725838802503        1.21757351830489
C           -3.95699838128614        2.97677589345501        1.59575248714256
C           -2.92379284842993        2.16394609149053        1.17792734555048
C           -3.24094841075873        0.98784980022111        0.51395208605839
C           -0.32037529785592       -1.17126193742271        0.29212010070901
C            1.07129648242485       -1.18187921095499        0.21244489168688
C            1.80534137901104        0.00245929847096       -0.00176460688073
C            0.45665473398928       -3.97566037777237       -0.89628598261662
C           -0.41595955782538       -5.04567034032217       -0.96548463955032
H           -3.85557875215147       -7.13753585594742        0.91923011435641
H           -2.82016302979122       -6.21478206934917        2.00649603579805
H           -3.46520782101431       -5.45296620756950        0.55504310100986
H           -0.96064604715552       -7.93707797675092        1.82296099013692
H           -0.36197735300420       -8.41530056722018        0.23577386959643
H           -1.97144903438881       -8.91420201900621        0.76372656978879
H           -2.78214010718200       -6.33486490705900       -1.73722555739021
H           -3.03872062583540       -7.99476316608313       -1.21531693593659
H           -1.47482361777813       -7.52378185460657       -1.87238414296587
H           -0.56699948439979       -5.80487216457900        2.31189937818192
H            0.97815460584643       -3.91961232863260        2.43635922958625
H            3.06115315401788       -4.60563993409311        0.82824744675610
H            5.42767732197617       -4.83830021299811        1.26486441469232
H            7.72860735829652       -0.87298419362348        2.08046478212631
H            8.10689398417423       -1.17155240995875        0.37379803474721
H            9.16690491479533       -1.78655651264463        1.63713877492297
H            9.03832749804371       -4.00473315544968        0.64114358555772
H            7.87679954857944       -3.49925574351888       -0.59029349154690
H            7.50950183008215       -4.86196433374695        0.46479376189556
H            6.99308917594406       -2.80085009157088        3.55976411861892
H            6.95263091889215       -4.44377613307789        2.92365616037247
H            8.49697920399557       -3.61548949759291        3.11649319315402
H            5.92175615895046       -0.62168127789231        0.78727830053649
H            5.91973706908166        0.64260199842918       -0.78820929014175
H            8.10305818930668        1.20109987641572       -0.37340411707859
H            9.16051288650353        1.81931714463997       -1.63734510995770
H            7.72550835902420        0.90019659038153       -2.07981770060846
H            6.98910185651264        2.82548679143340       -3.56110796253552
H            6.93678171904373        4.46795181552949       -2.92470593509720
H            8.48671705829468        3.64924858576867       -3.11348478015746
H            7.86063122698304        3.52644324407150        0.59108973217381
H            9.02251681783545        4.03668891130292       -0.63804390872725
H            7.49019747149571        4.88825386561460       -0.46406694983553
H            5.40892992763652        4.85680538203867       -1.26949661020424
H            3.04279801668893        4.61469818447354       -0.83516904782622
H            0.95645119379229        3.91401979824561       -2.44392174758205
H           -0.59635520062500        5.79312185620525       -2.32130787384239
H           -1.49841091742306        7.52340781730211        1.85949600105776
H           -3.06674131701905        7.98455002811473        1.20602019732646
H           -2.80054362934531        6.32784824868153        1.73319664491746
H           -0.99905238609848        7.92561664762258       -1.83911503845526
H           -0.39552976292305        8.41111438223236       -0.25596637407979
H           -2.00913129096181        8.90215128256852       -0.77865968220237
H           -3.48689994011338        5.43433331002196       -0.55480416864768
H           -3.88683840129487        7.11602435614003       -0.92192499268660
H           -2.85072885847475        6.19556044905841       -2.01045582662152
H           -0.79802669730084        5.33918142868916        1.92817314916548
H            0.74190617744911        3.45724798143970        1.78828193000329
H           -0.87607845949917        2.04821545058572       -0.58194248882156
H           -1.89560110046884       -2.45125913831044       -1.37853957254441
H           -3.69005936928674       -3.90349231000759       -2.10725642420501
H           -7.92881705371761       -3.07386005875341       -0.48596023907022
H           -8.50339375638974       -3.91160396597905       -1.92424275488982
H           -8.00221244547195       -2.22902379220567       -2.04258433984866
H           -6.37673804826689       -2.82480227110922       -3.88331009200020
H           -5.27125795107720       -4.18229444661127       -3.69045166987064
H           -7.00727003625454       -4.47199369647915       -3.78052224866987
H           -6.93405093569988       -5.71124803987456       -1.53103878362348
H           -5.19499682505618       -5.44559673784665       -1.47693756037827
H           -6.20423769974715       -4.91872626175026       -0.13134064276359
H           -6.63331765235613       -1.18614164162396       -0.58640327187125
H           -6.63602684876431        1.16528651425728        0.59108022595036
H           -8.00687962113579        2.20492906015990        2.05036860208721
H           -7.93643096830676        3.04736086407926        0.49230319646021
H           -8.51234445531288        3.88609974545420        1.92940089313449
H           -7.01809261926628        4.44912783811865        3.78541414583946
H           -6.37843625960058        2.80547189294062        3.88835747013027
H           -5.28064775089793        4.16896300527344        3.69366196883794
H           -6.94630056131752        5.69018165688794        1.53741684263753
H           -6.22095941937701        4.89821099186394        0.13507109521403
H           -5.20712062314816        5.42659006531305        1.47659027030665
H           -3.69893745218593        3.88930632980072        2.11196911091722
H           -1.90112678120428        2.44138799661969        1.38256479372868
H           -0.86738910393718       -2.05342974132666        0.58248689234715
H            0.74867402775127       -3.44901352709252       -1.79358060188687
H           -0.78384810912032       -5.33680316644175       -1.93532936667381
