146
 energy: -190.215039756242 gnorm: 0.000099218627 xtb: 6.7.1 (edcfbbe)
C           -3.10919574920492       -6.35354151091269        0.98529953792922
C           -1.88698460211777       -6.82527879426153        0.18318821197384
C           -1.29455957927172       -8.08924228274892        0.82080873306405
C           -2.35018807940933       -7.17906647331310       -1.23237004094214
C           -0.85424445550011       -5.71108861535585        0.19916742226452
C           -0.31264352770972       -5.29358894155973        1.41425704790442
C            0.57009500036537       -4.23513567232765        1.49024757937689
C            0.93662473087230       -3.55528424378145        0.33492891461263
N            1.74227479142002       -2.38553728925576        0.37973777890062
C            3.10991633953574       -2.48701592258878        0.54235294628875
C            3.66715611123445       -3.74003679212279        0.80564142439351
C            5.01974625756769       -3.87720752985616        1.05274084415066
C            5.86128431165471       -2.76080321595614        1.06730160047702
C            7.33148204628393       -2.94591660553352        1.40218279608548
C            8.12429085461077       -1.63731435666082        1.35121056483974
C            7.95965253906405       -3.92000083277581        0.39472540114822
C            7.44677094119976       -3.52196676508591        2.82107802761285
C            5.30331256483823       -1.53004072067876        0.75898932739616
C            3.95054718668857       -1.34161260912060        0.43523090150659
B            3.31774095073416       -0.00947227775995       -0.00735724762069
C            3.95637968560908        1.31930313346306       -0.45149000873003
C            5.30960929060883        1.50107299623455       -0.77729939999001
C            5.87271679554708        2.72873281948704       -1.08858009682790
C            7.34348076759576        2.90663262232659       -1.42497590445168
C            7.46034175687923        3.47848953664130       -2.84542661915370
C            7.97650143381965        3.88060412223475       -0.42043665143785
C            8.13067582865775        1.59476261702048       -1.37104249495365
C            5.03615170624901        3.84887725748637       -1.07588957985294
C            3.68331001721808        3.71831598468757       -0.82639672425168
C            3.12106583138817        2.46850931512529       -0.55872921989520
N            1.75337143421203        2.37413150247673       -0.39233409491228
C            0.95400110156549        3.54843827942246       -0.34869274960440
C            0.58127770986580        4.22174698645176       -1.50575974673657
C           -0.29622788098357        5.28460049125549       -1.43015235633281
C           -0.82614504804394        5.71288445944055       -0.21369585825236
C           -1.85446667764329        6.83115559314998       -0.19726919938803
C           -2.30321980237063        7.19820613915233        1.21955949121751
C           -1.26346203669144        8.08770041095983       -0.85065383687702
C           -3.08573074639677        6.35733836612548       -0.98416298607935
C           -0.40865292240895        5.05482015625207        0.93764112821238
C            0.46577072998691        3.98578315910194        0.87495781851648
C            1.07130053578377        1.17878007770524       -0.21991322823355
C           -0.32071463246449        1.16932984595226       -0.29381240567731
C           -1.03120041688992        0.00223453566169        0.00289836435289
N           -2.42713505197955        0.00679132910426        0.00826167552880
C           -3.24543554009854       -0.98498146716625       -0.49985597706296
C           -2.93328874919559       -2.16216930222706       -1.16423605968908
C           -3.96982369768250       -2.97279110267840       -1.57805905303203
C           -5.31973524755772       -2.65507584654853       -1.36700319168342
C           -6.38887876251455       -3.61976768937485       -1.86007068006732
C           -7.80655897024761       -3.14177350131115       -1.53410460282001
C           -6.27317857235759       -3.76222727810701       -3.38446413590500
C           -6.18616937247169       -4.98850699314536       -1.19491061722320
C           -5.62261174769732       -1.46216180697080       -0.73439529473785
C           -4.59874886962511       -0.62515008666193       -0.30700707473890
C           -4.59190154763891        0.65295984320749        0.34136683146061
C           -5.60672869700199        1.49657695271313        0.77724813809778
C           -5.29089124271529        2.68751148773168        1.40724365749499
C           -6.34962656502049        3.65904149758261        1.90927798279140
C           -7.77309966977403        3.18956410862039        1.59645015922791
C           -6.21937848212889        3.80175116995306        3.43247764535073
C           -6.14451046634246        5.02607973580286        1.24137469280777
C           -3.93723370965517        2.99656676319736        1.60687018691173
C           -2.90946375637361        2.17916086190865        1.18460915012895
C           -3.23471925290075        1.00393824279144        0.52302832202765
C           -0.32558439592315       -1.16899308493742        0.29441741467763
C            1.06593138914789       -1.18611904503489        0.21210697270932
C            1.80519582987091       -0.00559388414321       -0.00533412243184
C            0.43626142915209       -3.98184825381087       -0.88775460984631
C           -0.44331549435357       -5.04654852938559       -0.95086866156321
H           -3.89673297485135       -7.10296199616982        0.94598166593750
H           -2.85452325696815       -6.18097566235072        2.02744742896626
H           -3.49405171634303       -5.42359695825541        0.57125031165876
H           -1.00907722491500       -7.91880596829349        1.85494459698262
H           -0.41189105565137       -8.40979822673751        0.27109102193284
H           -2.02531006214865       -8.89480863549932        0.79994382269352
H           -2.81781121331771       -6.32442744004083       -1.71518103192298
H           -3.08570173573168       -7.97945056361636       -1.18360388204112
H           -1.51862788174992       -7.52300826181258       -1.84340135937571
H           -0.59674508625149       -5.78816250443334        2.33045703645909
H            0.96105106746988       -3.91251783394397        2.44411879243692
H            3.03983001014412       -4.61886991773888        0.82509389122405
H            5.40714217122351       -4.86441689484769        1.25159008916869
H            7.73121948313949       -0.91209730062536        2.05998514434921
H            8.10217878249058       -1.20992340064063        0.35156118210086
H            9.16353140973850       -1.83193091754926        1.61030099624973
H            9.01911924284991       -4.04815135667383        0.60804602857730
H            7.85499775768972       -3.53225693662180       -0.61660678535932
H            7.48456253880106       -4.89609922594522        0.43589027783593
H            6.99675239472670       -2.84001470099504        3.53980505787871
H            6.94246946749548       -4.48117090822888        2.90017359064571
H            8.49295807506369       -3.66284411922080        3.08580342915016
H            5.92132035675319       -0.65032007557317        0.77405083442044
H            5.92361646154017        0.61855860841226       -0.79157865630168
H            7.00679845701707        2.79668673504990       -3.56207478431530
H            8.50695785645931        3.61403746157633       -3.11122728284497
H            6.96023841793474        4.43971317000624       -2.92665444025368
H            7.50559865089411        4.85863122286281       -0.46383533896643
H            7.87077936288008        3.49592943606301        0.59195509147516
H            9.03638143599269        4.00363656498750       -0.63471112191547
H            7.73433394653890        0.86954256665614       -2.07798994798460
H            9.17068543956344        1.78428159918375       -1.63081937144498
H            8.10692640900630        1.16989083064885       -0.37035518376162
H            5.42760268620250        4.83382720832646       -1.27794503878753
H            3.05969249546721        4.59977149546622       -0.84734831775800
H            0.96324560609824        3.89072268222227       -2.46038780333693
H           -0.58565218308609        5.77392538919757       -2.34749700321650
H           -1.46463129951677        7.54338316279720        1.82020246779349
H           -3.03574452398543        8.00133845265111        1.17108495374359
H           -2.77007432590977        6.34948617397685        1.71341682751682
H           -0.98849261967460        7.90797551823982       -1.88605907125556
H           -0.37443201628666        8.40933774649388       -0.31193406913919
H           -1.99101010415131        8.89614572571968       -0.82934293052537
H           -3.47048948505130        5.43260063265908       -0.55851744190872
H           -3.86991745975646        7.11023348786625       -0.94432518689827
H           -2.84111492258035        6.17462191866887       -2.02699586434606
H           -0.77013475073694        5.35690199493689        1.90653554746692
H            0.76536528314747        3.47041160356471        1.77627455686310
H           -0.86839341427121        2.05144253988687       -0.58298342524568
H           -1.91198546257642       -2.44207785308582       -1.37228105549006
H           -3.71571276332873       -3.88612159954125       -2.09480989535567
H           -7.94521788411879       -3.03573147420609       -0.46060533534074
H           -8.52829238875084       -3.87137504767374       -1.89665943660104
H           -8.01965987046697       -2.19117789112991       -2.01734407612882
H           -6.39923486056186       -2.79277766778016       -3.86208582027824
H           -5.30364832363965       -4.15883716093150       -3.67316031143455
H           -7.04203220002312       -4.43520537543909       -3.75897874270325
H           -6.96642616302660       -5.67842821471473       -1.51034262926906
H           -5.22601417147556       -5.42103221295541       -1.46057695526626
H           -6.22925575819005       -4.89028573864702       -0.11201825698689
H           -6.64113625398515       -1.15505162852440       -0.56416624703265
H           -6.62860359536357        1.19604871328142        0.61556567452070
H           -7.98752574617243        2.24043680226265        2.08198494702711
H           -7.92223455369984        3.08401843427387        0.52430827211247
H           -8.48703510462475        3.92366452555889        1.96530895858163
H           -5.24486805802190        4.19249988431144        3.71224611576110
H           -6.98064705577247        4.47974409340805        3.81338884227302
H           -6.34719555138950        2.83341116972779        3.91187624988459
H           -6.91716529117964        5.72123081985743        1.56395619289964
H           -6.19874048980777        4.92756073718363        0.15901137788176
H           -5.17901347881899        5.45246334328179        1.49744644075855
H           -3.67287660995648        3.90833828615452        2.12124089907287
H           -1.88468470538007        2.45245952924761        1.38420699050985
H           -0.87619624065917       -2.04819711551833        0.58692393771813
H            0.73087844592389       -3.46148326844659       -1.78785401137361
H           -0.81391167645934       -5.34021543637469       -1.91891446219228
