78
 energy: -117.969283239783 gnorm: 0.000027167652 xtb: 6.7.1 (edcfbbe)
C            3.24938248930644        0.32854156475720        2.22732265586711
C            2.65203856507586        0.44324288112206        0.82003989632659
C            2.52770980936765        1.92654174577542        0.43971455691821
C            1.26829457505836       -0.23397569670113        0.84323395554922
C            0.58495739646841       -0.34191776805039       -0.52919696198233
C           -0.68053492479984       -1.15117330372637       -0.38841335617663
C           -0.61693966538976       -2.53795311771240       -0.29398102515365
C           -1.76924099612268       -3.28971313141508       -0.14040184524501
C           -3.00138151914778       -2.66836310232554       -0.07485390619566
C           -3.08024951736816       -1.28072115482260       -0.16410191950301
C           -4.37858130726070       -0.60979126877199       -0.09689105001771
N           -4.40318625332730        0.71564472483984       -0.20542157272550
C           -5.60418006762830        1.28337621862020       -0.14291397672335
C           -5.68267306866907        2.73992783592980       -0.26126385653250
C           -6.91756196640258        3.38238069870349       -0.19987318010992
C           -6.98836326454225        4.75720577908232       -0.31300712803592
C           -5.83175465333586        5.50115747006848       -0.48770665685280
C           -4.60065792955530        4.86686643113852       -0.54921543453020
C           -4.52311460826016        3.49239610106738       -0.43685653834732
N           -6.73814769767804        0.60826862743441        0.02012900293205
C           -6.62115445228901       -0.71253573893275        0.12321542397603
C           -7.84140205779953       -1.49864380314242        0.30731547105531
C           -9.08230868466226       -0.86646285576201        0.35364000956641
C          -10.23205786976200       -1.61185764110291        0.52776664883381
C          -10.15454529654889       -2.98992217279522        0.65716284034674
C           -8.92238557871365       -3.62361352718084        0.61202323451540
C           -7.76889137218948       -2.88411563688146        0.43782300493050
N           -5.46214506733167       -1.36231912385063        0.06886734840314
C           -1.91670822832590       -0.53158702452251       -0.32066789981335
C            1.51556740021090       -0.95276062336597       -1.52970033896454
C            2.84858401661329       -0.89505208008748       -1.33445899256364
N            3.84142619094361       -1.40230232741617       -2.14489199492417
C            5.07629625844327       -1.09219309858116       -1.62837202952345
C            6.30925455690885       -1.38831801360848       -2.11403446388790
C            7.42745781225032       -0.92846350265253       -1.37288055712385
C            7.21642690159291       -0.16594125322992       -0.14662393473162
C            5.98275939002758        0.12171103691333        0.32953875167234
C            4.85057508766911       -0.34467753141395       -0.40175252449025
C            3.49221975131043       -0.24093419951176       -0.21731406980238
C            8.53764186266100        0.16428634237056        0.36661255345685
C            8.94792206361473        0.86149455178174        1.48146881760760
C           10.31301681463512        1.01242173058938        1.70822629137766
C           11.24196085867728        0.47332265114591        0.83270080413765
C           10.84080952556388       -0.23223358911247       -0.29415959013161
C            9.48531152614722       -0.38960565006346       -0.53151378259980
C            8.77598410005979       -1.05512522749425       -1.59128777028515
H            2.50543577675215        0.61596889643078        2.96772327621932
H            4.10622346672594        0.98400107288060        2.34635141096629
H            3.56152075886789       -0.69324134377966        2.43031078158740
H            3.50674879655657        2.39979971526451        0.45991701359212
H            1.87631885095688        2.44114814719140        1.14284234983664
H            2.12173846943626        2.03742040190897       -0.56251446728086
H            1.39166332005516       -1.24466343854467        1.24074532136722
H            0.61118076242012        0.31258887146681        1.52286077316337
H            0.30486237892632        0.66512602957474       -0.86760705232807
H            0.34548811670214       -3.02754124545471       -0.34556630939576
H           -1.70315953583840       -4.36574519571261       -0.07149873350203
H           -3.90986565512748       -3.23678542991914        0.04352801213720
H           -7.80664495635542        2.78721090075442       -0.06347335989609
H           -7.94655622923199        5.25363611521754       -0.26536710784451
H           -5.88984608976622        6.57627619212779       -0.57606998398809
H           -3.70074346754848        5.44878243003381       -0.68547707181675
H           -3.57434923563206        2.98143060264076       -0.48287876393947
H           -9.12314127974203        0.20646934320667        0.25106876090907
H          -11.19333409137471       -1.12032571127138        0.56321059594981
H          -11.05528372136065       -3.57059849653258        0.79341930389487
H           -8.86446599563345       -4.69753703559633        0.71338535996182
H           -6.80141499226446       -3.35946362397790        0.40065951122194
H           -2.00090923776611        0.54229646374617       -0.38966302483951
H            1.08941395913183       -1.41612179051414       -2.40637343775841
H            3.68357404152300       -1.89617952433565       -3.00478073202920
H            6.44759894935581       -1.94577219261057       -3.02835996662238
H            5.85377939826279        0.69257675720913        1.23489509928451
H            8.23084517751815        1.28513023483067        2.17026892429317
H           10.65227618408128        1.55665992593579        2.57774327953035
H           12.29635311777512        0.60440884984498        1.03094214595135
H           11.57289604760734       -0.64925395558906       -0.97085914438585
H            9.24436800947467       -1.56421619354921       -2.41443067467321
