78
 energy: -117.945961028100 gnorm: 0.000056344125 xtb: 6.7.1 (edcfbbe)
C            0.80857395390448        2.55938162622635        2.02742067719396
C            1.66366795695151        3.37523560012390        1.04651971190174
C            2.95421792819181        3.80125449730818        1.76750751658559
C            0.94552720263534        4.67103374131262        0.60748574625056
C           -0.05314930373414        4.57091905654326       -0.56437977576862
C           -1.37429907563830        3.95490432986809       -0.14165537983732
C           -2.37669683567691        4.75835748402982        0.39081360683615
C           -3.58730035385912        4.21430108880776        0.78939568753161
C           -3.81494827564345        2.85671786700463        0.67240588836278
C           -2.81521458262192        2.03965420846266        0.15221367966012
C           -2.99639853274238        0.59136492051982        0.06029145563418
N           -1.90161440854149       -0.14794926151703       -0.09007235292579
C           -2.08826450608153       -1.46310165241192       -0.13968145080190
C           -0.90550810397655       -2.31663104129463       -0.24517269124191
C           -1.04590143370725       -3.68283332284086       -0.48154220374418
C            0.07296238172891       -4.48881904041489       -0.56234057779477
C            1.33633658686919       -3.94152014083931       -0.39886644854643
C            1.48089726142573       -2.58386216889843       -0.16015025900833
C            0.36731794866992       -1.76973627600619       -0.08938950389917
N           -3.28407812574416       -2.04413734604714       -0.08710132862469
C           -4.32420864093013       -1.22786186481147        0.05330831654808
C           -5.66030301502395       -1.82138373377170        0.11302814439439
C           -6.78751518123438       -1.00356247139698        0.15997114412392
C           -8.04768550735132       -1.56641812163197        0.21572907638918
C           -8.19383561668558       -2.94496461246753        0.22611475513690
C           -7.07525403873347       -3.76259739868573        0.18005921463014
C           -5.81219715398124       -3.20639142627253        0.12319867422433
N           -4.22611685823026        0.09611574328815        0.14871856519846
C           -1.60859945758699        2.59496415715338       -0.26263445791148
C            0.54456417357205        3.82423551434995       -1.70913347834694
C            1.47584757045219        2.85173830802017       -1.43881125046955
N            2.02400556699421        1.97210369418165       -2.35087787278562
C            2.84136973596184        1.09601504210478       -1.70266275874760
C            3.57127291620676        0.04120051146693       -2.23604822361937
C            4.32404660950922       -0.70749798488429       -1.34349599566476
C            4.32893310989083       -0.39843642019371        0.05826290402209
C            3.60446745123951        0.65019886841427        0.57529413216588
C            2.84616466932259        1.43081751312312       -0.31258784510142
C            1.99873571638488        2.55308227568340       -0.16093076317830
C            5.17711511084104       -1.37779740022274        0.69901927566200
C            5.53692476038952       -1.57195861187245        2.01788336085344
C            6.38162223199631       -2.62648975329979        2.33401679601766
C            6.86683185613580       -3.48551578943258        1.34610640230296
C            6.52168750942894       -3.31397523555296        0.02354064786365
C            5.67017267958043       -2.25664758402183       -0.32082533710246
C            5.15323351270001       -1.84727991642607       -1.56059069418957
H            0.60337007828443        3.14481049531696        2.92186258660901
H            1.33651972448394        1.65503469071680        2.32000581721605
H           -0.13663124195767        2.27020266656187        1.57907610259463
H            3.45149161896708        2.94732765047917        2.21561884219488
H            2.72103615269995        4.51316789966513        2.55697306936459
H            3.64576263813817        4.26932316989070        1.07004762743615
H            0.43141725313417        5.09782786051139        1.47112826533279
H            1.71572953306055        5.38109105216312        0.29515535845107
H           -0.27333907068825        5.59806112947563       -0.88303517362485
H           -2.20976771078621        5.82182917909004        0.49234069337152
H           -4.35461135628267        4.85703177968063        1.19581111023981
H           -4.74705612666816        2.41356188324398        0.98542707579067
H           -2.03755592721051       -4.09063799876596       -0.60101878366625
H           -0.03743910787190       -5.54719676022561       -0.74912342271797
H            2.21171562503528       -4.57219406965705       -0.45455360204140
H            2.46437225001122       -2.16201996253593       -0.02644699201148
H            0.46574793913590       -0.71128452690619        0.09606334789241
H           -6.65304044662529        0.06674935258802        0.14850805166596
H           -8.92100304367233       -0.93151747880918        0.25097013809758
H           -9.18059677221964       -3.38261373309057        0.27025111204404
H           -7.19182964885602       -4.83652219793932        0.18920030992632
H           -4.92972386027924       -3.82579318484564        0.08953869784336
H           -0.86102082780410        1.93944959507272       -0.68101338353851
H            0.15615544100288        3.98106346945764       -2.70244555006545
H            1.80549092585185        1.95097325799143       -3.33208797472011
H            3.54594995695381       -0.18614096420351       -3.29174550961858
H            3.61192628350243        0.85388099121204        1.63429096682036
H            5.16917819767377       -0.91641602296695        2.79414680005939
H            6.67109943045868       -2.78885534440287        3.36220751863561
H            7.52287024046754       -4.29583662954395        1.63005093804473
H            6.89745107040685       -3.97964688877113       -0.74023619316881
H            5.34048519663432       -2.31002056738871       -2.51233352367238
