  66
  -109.623818446400       0.271039664080991      !
 C         -7.2985653863       -0.0033946557        0.0267739661
 C         -6.2668913217        1.1394393466       -0.0241430769
 C         -6.9841836584        2.5014200166       -0.0850123906
 C         -5.4270575204        0.9795293059       -1.2743209911
 C         -6.0371653324        0.9997368901       -2.5209110207
 C         -5.3147856099        0.8621066429       -3.6918856263
 C         -3.9398393218        0.7009958930       -3.6310583339
 C         -3.3065833929        0.6770079302       -2.4086305979
 C         -4.0360317540        0.8127240725       -1.2203761043
 N         -3.3741576880        0.7816156477       -0.0090275481
 C         -1.9584204602        0.6192194223       -0.0022902982
 C         -1.1320628206        1.7500452264       -0.0165421104
 C          0.2267280295        1.5828073138       -0.0127719233
 C          0.7971518836        0.2993660455        0.0042084856
 C         -0.0316141547       -0.8473495088        0.0198216788
 C         -1.4186654847       -0.6482005636        0.0165138548
 C          0.5699820512       -2.1603261770        0.0374032693
 C         -0.1841286142       -3.3368376959        0.0539706758
 C          0.4254362112       -4.5810796842        0.0702002577
 C         -0.3730443070       -5.7453739148        0.0877849990
 N         -1.0263544615       -6.6880482787        0.1058900501
 C          1.8283683186       -4.6898271022        0.0700568109
 C          2.5842896283       -3.5512670594        0.0539197376
 C          1.9828291286       -2.2792113878        0.0374192233
 C          2.8154392498       -1.1203440559        0.0200767669
 N          4.1376460691       -1.2282503577        0.0176920089
 C          4.9276064517       -0.1611617853        0.0012258613
 C          6.3189154520       -0.2671852973       -0.0034002006
 C          7.1188889479        0.8692768074       -0.0203230684
 C          8.5246133636        0.7400424251       -0.0258930235
 N          9.6649742500        0.6192535194       -0.0311668270
 C          6.5296105563        2.1506501567       -0.0324631855
 C          7.3437394612        3.3029608642       -0.0478929825
 N          7.9895953656        4.2506533889       -0.0600525864
 C          5.1446456417        2.2805894022       -0.0289047436
 C          4.3227040822        1.1553777756       -0.0129520480
 N          2.9953610837        1.2487910396       -0.0110311400
 C          2.2220320384        0.1748393310        0.0042542035
 C         -4.0359431394        0.9157477631        1.1952117811
 C         -3.3070268069        0.8736567812        2.3907761587
 C         -3.9395396287        1.0045420695        3.6068000542
 C         -5.3133243229        1.1796883911        3.6536421424
 C         -6.0357461627        1.2197573042        2.4753109402
 C         -5.4264905230        1.0902089042        1.2348873162
 H         -7.9286331795        0.0831558775        0.9071054284
 H         -7.9373716889        0.0128800331       -0.8513898974
 H         -6.7879774153       -0.9637699023        0.0626685620
 H         -6.2519000098        3.3053146736       -0.1290199768
 H         -7.6055043875        2.6509931882        0.7931163426
 H         -7.6175866283        2.5657562995       -0.9648867465
 H         -7.1066529293        1.1265473401       -2.5867402553
 H         -5.8209576292        0.8818602130       -4.6443842544
 H         -3.3611350863        0.5945867884       -4.5356157979
 H         -2.2358480786        0.5533336713       -2.3640125165
 H         -1.5764357140        2.7333103255       -0.0305765185
 H          0.8943830123        2.4302004939       -0.0239001570
 H         -2.0976020175       -1.4860485369        0.0271438475
 H         -1.2623456156       -3.3020811794        0.0546933059
 H          2.2876299149       -5.6665068872        0.0826742696
 H          3.6622837477       -3.5975513517        0.0532703186
 H          6.7657433767       -1.2491490275        0.0063881452
 H          4.6889705700        3.2585536686       -0.0386583067
 H         -2.2374984991        0.7367477562        2.3567158147
 H         -3.3613427754        0.9696182627        4.5172411015
 H         -5.8188670560        1.2836731309        4.6009922918
 H         -7.1047261725        1.3560578571        2.5303981398
  66
  -109.623754675700       0.253352891854123      !
 C         -7.1149719599       -0.3547793767       -0.0224667330
 C         -6.2722762293        0.9353499939       -0.0298878324
 C         -7.1916893443        2.1707921299       -0.0410946813
 C         -5.4227120043        0.9457606297       -1.2838678115
 C         -6.0329756558        0.9661351468       -2.5303780375
 C         -5.3014504452        0.9649287285       -3.7037827625
 C         -3.9171716044        0.9392638296       -3.6459001089
 C         -3.2835431721        0.9118281453       -2.4237284173
 C         -4.0220027576        0.9141957123       -1.2334046234
 N         -3.3586803570        0.8844857242       -0.0228322940
 C         -1.9429935657        0.7209110097       -0.0177556306
 C         -1.1008808769        1.8395839064       -0.0486805526
 C          0.2557565164        1.6519730501       -0.0435690702
 C          0.8084130866        0.3609054968       -0.0074984190
 C         -0.0371848212       -0.7729685168        0.0244864464
 C         -1.4204642333       -0.5531704237        0.0179319401
 C          0.5424754725       -2.0950864124        0.0615804417
 C         -0.2309001476       -3.2585576946        0.0950752597
 C          0.3581880778       -4.5121727984        0.1301863932
 C         -0.4602758523       -5.6621419441        0.1631617161
 N         -1.1322205332       -6.5915456331        0.1887979105
 C          1.7591859226       -4.6436084741        0.1331687538
 C          2.5336349408       -3.5178875725        0.1009960787
 C          1.9529065806       -2.2366237764        0.0649422107
 C          2.8033046886       -1.0911098526        0.0322779569
 N          4.1234679006       -1.2212293197        0.0350310393
 C          4.9312192264       -0.1679432318        0.0043552249
 C          6.3204606703       -0.2982497118        0.0067547789
 C          7.1400549377        0.8237190230       -0.0265149994
 C          8.5431872343        0.6689166732       -0.0245957583
 N          9.6807447105        0.5242981490       -0.0196481487
 C          6.5727757077        2.1145189082       -0.0629933412
 C          7.4068090835        3.2520886683       -0.0965004466
 N          8.0689260148        4.1881663187       -0.1258518382
 C          5.1901684574        2.2684173881       -0.0657286661
 C          4.3486904138        1.1580542954       -0.0329146991
 N          3.0228741580        1.2740044521       -0.0345427831
 C          2.2314234323        0.2135740064       -0.0040325407
 C         -4.0276436257        0.9339662298        1.1839565338
 C         -3.2943130279        0.9558509792        2.3772581080
 C         -3.9333609136        1.0009301487        3.5960558922
 C         -5.3180065600        1.0213508083        3.6474917230
 C         -6.0443866064        1.0022506764        2.4710344045
 C         -5.4285592954        0.9641863484        1.2277077730
 H         -7.7440889215       -0.4093674540       -0.9063357944
 H         -6.4623034158       -1.2256398580       -0.0112999574
 H         -7.7530371872       -0.3933913170        0.8558642872
 H         -7.8300482291        2.1713725127       -0.9195323124
 H         -6.5929143882        3.0794003091       -0.0501423550
 H         -7.8288327481        2.1883029810        0.8380518973
 H         -7.1099563650        0.9789712418       -2.5945528024
 H         -5.8081373840        0.9817637044       -4.6560664214
 H         -3.3317878160        0.9397322434       -4.5524187537
 H         -2.2057803659        0.8899783628       -2.3804089117
 H         -1.5303239016        2.8292281909       -0.0760073594
 H          0.9354297320        2.4896048738       -0.0666878275
 H         -2.1115082723       -1.3808075659        0.0402793441
 H         -1.3083912723       -3.2063013808        0.0943415258
 H          2.2023912734       -5.6273617379        0.1608412155
 H          3.6107307510       -3.5817414233        0.1025072820
 H          6.7500328745       -1.2875577038        0.0347387010
 H          4.7518185117        3.2539048645       -0.0936354521
 H         -2.2162712970        0.9394203879        2.3386825609
 H         -3.3520081573        1.0187100214        4.5049880771
 H         -5.8289766091        1.0503262498        4.5972121444
 H         -7.1217107025        1.0123890711        2.5303036183
  66
  -109.623676832600       0.233319831442074      !
 C         -7.1718887027       -0.2496375381        0.0917684326
 C         -6.2737006116        0.9989065523       -0.0011353152
 C         -7.1382484904        2.2707592648       -0.0839950972
 C         -5.4354201378        0.8959931644       -1.2583794723
 C         -6.0557761627        0.8569825046       -2.4994785652
 C         -5.3348850757        0.7622644926       -3.6756337024
 C         -3.9512389220        0.7050902045       -3.6260153026
 C         -3.3079999818        0.7356584207       -2.4089749772
 C         -4.0358604143        0.8261772360       -1.2154739321
 N         -3.3632289223        0.8495725859       -0.0098709097
 C         -1.9476798858        0.6863135897       -0.0093531332
 C         -1.1106758666        1.8093091623       -0.0212320694
 C          0.2466703224        1.6283827635       -0.0203181177
 C          0.8051819126        0.3394473458       -0.0093161809
 C         -0.0348562811       -0.7990094120        0.0008328016
 C         -1.4194469104       -0.5859454184        0.0017798756
 C          0.5522047513       -2.1184474802        0.0107884211
 C         -0.2147258586       -3.2867055919        0.0159906093
 C          0.3812489307       -4.5375271786        0.0267397535
 C         -0.4303734868       -5.6928068259        0.0329882746
 N         -1.0956904011       -6.6272231002        0.0367012331
 C          1.7829340189       -4.6613460838        0.0324348523
 C          2.5511935697       -3.5309474061        0.0263517148
 C          1.9634924779       -2.2524000486        0.0151221831
 C          2.8079756072       -1.1020972443        0.0072882388
 N          4.1288452521       -1.2245991987        0.0124714371
 C          4.9306217226       -0.1663330295        0.0054028069
 C          6.3205890825       -0.2882565574        0.0118377812
 C          7.1334742589        0.8390805399        0.0044751396
 C          8.5375022637        0.6931199784        0.0127570978
 N          9.6758818270        0.5563730400        0.0178555624
 C          6.5587187984        2.1269662500       -0.0104478320
 C          7.3858218734        3.2700084870       -0.0187530828
 N          8.0414657708        4.2108310396       -0.0253531928
 C          5.1752533885        2.2726418695       -0.0174312661
 C          4.3404592903        1.1568381772       -0.0096640275
 N          3.0141241951        1.2650519211       -0.0158802057
 C          2.2287895964        0.1997332596       -0.0069513750
 C         -4.0201565216        0.9858886354        1.1968460787
 C         -3.2781041117        1.0376769313        2.3838761806
 C         -3.9056998602        1.1743735500        3.6018276600
 C         -5.2877412705        1.2568517352        3.6594221643
 C         -6.0231990714        1.2007811827        2.4898134686
 C         -5.4188503522        1.0687416569        1.2472522491
 H         -7.8122627122       -0.3300216958       -0.7819382743
 H         -6.5577847836       -1.1462544564        0.1511750854
 H         -7.8020087737       -0.2066833451        0.9755365702
 H         -6.5001424723        3.1500108651       -0.1476370524
 H         -7.7702344008        2.3678073191        0.7937227569
 H         -7.7791254182        2.2474918279       -0.9603145811
 H         -7.1324207822        0.8992398619       -2.5568137179
 H         -5.8491457160        0.7342323783       -4.6235756536
 H         -3.3737706323        0.6356970927       -4.5349404960
 H         -2.2306956483        0.6918336857       -2.3724806046
 H         -1.5451276095        2.7970760754       -0.0304561305
 H          0.9224402264        2.4693968052       -0.0288038652
 H         -2.1064977791       -1.4171570916        0.0105568270
 H         -1.2924778142       -3.2403276154        0.0113908569
 H          2.2315373729       -5.6430019091        0.0412360928
 H          3.6286137676       -3.5889128078        0.0297904949
 H          6.7560515435       -1.2752961727        0.0230363361
 H          4.7309208255        3.2557955607       -0.0285267894
 H         -2.2022932605        0.9696608540        2.3417194190
 H         -3.3173368308        1.2143852612        4.5055303621
 H         -5.7897443673        1.3611515747        4.6086186444
 H         -7.0987055429        1.2590966996        2.5539586421
  66
  -109.623216537700       0.143355633534583      !
 C         -7.2044877638       -0.1976763450       -0.1702792259
 C         -6.2729354900        1.0240953635       -0.0554434493
 C         -7.1024360942        2.3171096649        0.0560263825
 C         -5.4200979361        1.0967165400       -1.3049223179
 C         -6.0265517227        1.2515183154       -2.5438628386
 C         -5.2947369056        1.3050340009       -3.7157810785
 C         -3.9145576447        1.1932147032       -3.6643131268
 C         -3.2849409428        1.0360817778       -2.4498516920
 C         -4.0225515169        0.9936681501       -1.2596352686
 N         -3.3636051115        0.8398777651       -0.0557479831
 C         -1.9487408658        0.6766777675       -0.0582725702
 C         -1.1127317667        1.7980987001       -0.1333959175
 C          0.2447914992        1.6190811672       -0.1251558636
 C          0.8049810483        0.3337314081       -0.0389152571
 C         -0.0337374190       -0.8033354887        0.0352515417
 C         -1.4184475312       -0.5925808154        0.0206884355
 C          0.5549345535       -2.1191026239        0.1240753223
 C         -0.2107568807       -3.2854820234        0.2029976689
 C          0.3865449700       -4.5327593639        0.2889335345
 C         -0.4238920086       -5.6862434328        0.3673903546
 N         -1.0884414109       -6.6194220601        0.4309188497
 C          1.7883703037       -4.6546412459        0.2987922847
 C          2.5554324252       -3.5259537648        0.2228645611
 C          1.9663962469       -2.2509632319        0.1352593480
 C          2.8095152201       -1.1020237266        0.0612510932
 N          4.1305732034       -1.2221504350        0.0742542264
 C          4.9309644785       -0.1649248880        0.0076711472
 C          6.3210886360       -0.2840118750        0.0243020391
 C          7.1323698378        0.8423209025       -0.0461207776
 C          8.5366014618        0.6992571199       -0.0259580489
 N          9.6753059529        0.5650021535       -0.0086907090
 C          6.5558733367        2.1263251816       -0.1365265450
 C          7.3813859232        3.2682686555       -0.2095731447
 N          8.0365646908        4.2078510681       -0.2688589271
 C          5.1722231620        2.2692257497       -0.1539623433
 C          4.3390483562        1.1544620476       -0.0830842384
 N          3.0126095702        1.2604685564       -0.0932697851
 C          2.2286601589        0.1962622534       -0.0258513212
 C         -4.0352181480        0.7990271955        1.1506742528
 C         -3.3071585862        0.6884726050        2.3425004881
 C         -3.9497334196        0.6344826300        3.5590528331
 C         -5.3332284539        0.6922234125        3.6108376925
 C         -6.0539933383        0.8161962482        2.4374678762
 C         -5.4341566566        0.8772917464        1.1969080621
 H         -7.8381302165       -0.1191060059       -1.0489390938
 H         -6.6147222637       -1.1086334170       -0.2525756936
 H         -7.8426941556       -0.2803511774        0.7046879758
 H         -7.7309650246        2.4509103778       -0.8193572532
 H         -6.4404985239        3.1769028666        0.1390373156
 H         -7.7434004649        2.2916926473        0.9322554190
 H         -7.1010666729        1.3299449806       -2.6030681970
 H         -5.7982225191        1.4275068804       -4.6620160275
 H         -3.3291274836        1.2258929296       -4.5702091224
 H         -2.2109041132        0.9424069973       -2.4137923704
 H         -1.5481768506        2.7835609783       -0.1951489474
 H          0.9194494550        2.4592431503       -0.1799143763
 H         -2.1044279121       -1.4228777793        0.0764090061
 H         -1.2885762866       -3.2403441673        0.1991482266
 H          2.2380487633       -5.6335283973        0.3662716466
 H          3.6329147124       -3.5826171599        0.2285895987
 H          6.7580431848       -1.2680598314        0.0930266679
 H          4.7264179055        3.2493507280       -0.2229118632
 H         -2.2297591907        0.6489868041        2.3061629108
 H         -3.3714951506        0.5480872514        4.4660269519
 H         -5.8469912410        0.6455977251        4.5582968610
 H         -7.1302550008        0.8652654465        2.4963471709
  66
  -109.622415701900       6.142937729328711E-002 !
 C         -7.2494310009        0.0352510549        0.6259333601
 C         -6.2633067752        1.1211374070        0.1549267730
 C         -7.0257368395        2.4044176059       -0.2256760326
 C         -5.5297593815        0.6185402351       -1.0704960218
 C         -6.2498372629        0.2844837475       -2.2095251361
 C         -5.6307489899       -0.1463745680       -3.3678528042
 C         -4.2484246351       -0.2297319492       -3.4095531814
 C         -3.5082653006        0.0923386765       -2.2939874238
 C         -4.1335109107        0.4960747030       -1.1068334474
 N         -3.3674175643        0.7883053278        0.0074986894
 C         -1.9568593548        0.6270159787       -0.0562631353
 C         -1.1276187638        1.7573471085       -0.0653695541
 C          0.2307619926        1.5909768159       -0.0825488249
 C          0.8019538883        0.3079399037       -0.1126282880
 C         -0.0281832450       -0.8371688815       -0.1481133281
 C         -1.4139611467       -0.6397846357       -0.0991382540
 C          0.5722220465       -2.1487534697       -0.2220652823
 C         -0.1823145771       -3.3186479216       -0.3435489172
 C          0.4262333397       -4.5615491917       -0.4153513278
 C         -0.3714762010       -5.7188116321       -0.5487826313
 N         -1.0252967639       -6.6552130743       -0.6575234694
 C          1.8277699761       -4.6752052635       -0.3619679062
 C          2.5842030212       -3.5422821518       -0.2503375699
 C          1.9842518485       -2.2710354156       -0.1862744085
 C          2.8169847704       -1.1157251659       -0.0956866509
 N          4.1371799627       -1.2269600277       -0.0301657842
 C          4.9271124439       -0.1630185374        0.0517345784
 C          6.3153786152       -0.2731687637        0.1378717507
 C          7.1149982679        0.8603867753        0.2253931979
 C          8.5167499985        0.7257874630        0.3238203063
 N          9.6535728066        0.5985992548        0.4046078072
 C          6.5289112049        2.1431697183        0.2211628641
 C          7.3421332632        3.2928405785        0.3087586880
 N          7.9869453747        4.2385504039        0.3828107580
 C          5.1470278519        2.2773739414        0.1337360907
 C          4.3250943570        1.1551267125        0.0520743846
 N          3.0002633284        1.2523282990       -0.0226211061
 C          2.2257497015        0.1808867088       -0.0837477663
 C         -3.9325512204        1.2341646270        1.1891680421
 C         -3.1165131872        1.4702184704        2.3036049605
 C         -3.6486261807        1.9398151907        3.4836165212
 C         -5.0105034177        2.1742981341        3.5811566075
 C         -5.8239904565        1.9088683287        2.4955388375
 C         -5.3163351685        1.4328454558        1.2942431622
 H         -7.8065214093        0.3700405109        1.4960763176
 H         -7.9593147064       -0.2100487757       -0.1585063139
 H         -6.7061851476       -0.8690845316        0.8932696489
 H         -6.3250008395        3.1677747674       -0.5584381757
 H         -7.5785907654        2.7929757732        0.6245284126
 H         -7.7301338082        2.2118429229       -1.0295798175
 H         -7.3258929219        0.3626804373       -2.1985574279
 H         -6.2209529727       -0.4034878808       -4.2334525384
 H         -3.7462116656       -0.5435568849       -4.3116123030
 H         -2.4320363852        0.0383522195       -2.3388095655
 H         -1.5706463820        2.7413237036       -0.0471805495
 H          0.8977287640        2.4389454982       -0.0736679468
 H         -2.0899184590       -1.4802413174       -0.0870571942
 H         -1.2592117138       -3.2783898202       -0.3952744024
 H          2.2860161123       -5.6509961892       -0.4153522744
 H          3.6614442193       -3.5923135565       -0.2146796725
 H          6.7600879048       -1.2561421016        0.1390650799
 H          4.6934636752        3.2563631328        0.1340600451
 H         -2.0574516812        1.2770353853        2.2414116149
 H         -3.0005042358        2.1196629017        4.3274242224
 H         -5.4372167368        2.5484611833        4.4986007934
 H         -6.8852990386        2.0766958986        2.5935846499
  66
  -109.620948438900       1.300375342227780E-002 !
 C         -6.2193427188       -0.9629006340        0.2656911733
 C         -6.2003021549        0.5709871633        0.0680376259
 C         -7.6459222262        1.0698493969        0.0156334897
 C         -5.4485126296        0.8373748735       -1.2204424304
 C         -6.0781041350        0.9554217374       -2.4492563403
 C         -5.3575881174        1.0638920739       -3.6270096996
 C         -3.9736778863        1.0414716678       -3.5933626074
 C         -3.3198422096        0.9426721791       -2.3841962925
 C         -4.0444088184        0.8545342777       -1.1919308636
 N         -3.3758991517        0.8157895767        0.0191006598
 C         -1.9610194931        0.6629849755        0.0166884254
 C         -1.1201551707        1.7850598981        0.0232658641
 C          0.2361375058        1.6024954136        0.0190294216
 C          0.7925622358        0.3123905693        0.0042102126
 C         -0.0489235343       -0.8242658440       -0.0088573007
 C         -1.4338814285       -0.6088366730       -0.0014664525
 C          0.5375154538       -2.1438502282       -0.0270968157
 C         -0.2296331561       -3.3119085303       -0.0470993677
 C          0.3655540351       -4.5629872183       -0.0649888500
 C         -0.4467913197       -5.7174297716       -0.0912215030
 N         -1.1133847492       -6.6505592763       -0.0925379240
 C          1.7671698237       -4.6876217197       -0.0614734770
 C          2.5358794564       -3.5576863780       -0.0432383059
 C          1.9489610871       -2.2788200720       -0.0267727998
 C          2.7945858721       -1.1296454769       -0.0119855977
 N          4.1154162861       -1.2516109228       -0.0125193123
 C          4.9174758913       -0.1938462938        0.0023816000
 C          6.3073071552       -0.3150836631        0.0013009291
 C          7.1198179717        0.8124461837        0.0189388533
 C          8.5238753646        0.6672570245        0.0204298335
 N          9.6622665159        0.5319514846        0.0107363777
 C          6.5451140176        2.1000639974        0.0374569386
 C          7.3717547502        3.2437459161        0.0543086945
 N          8.0281266089        4.1854241481        0.0785176805
 C          5.1618976416        2.2452721563        0.0379033136
 C          4.3274401867        1.1294126863        0.0198933564
 N          3.0013872102        1.2370441515        0.0162347082
 C          2.2157107505        0.1722962895        0.0022091364
 C         -4.0262933962        1.1462622338        1.1945811695
 C         -3.2904020014        1.4860476419        2.3335004300
 C         -3.9313678430        1.8823281912        3.4875178213
 C         -5.3138306090        1.9477683431        3.5193545896
 C         -6.0469309382        1.5705542325        2.4064076568
 C         -5.4310826385        1.1501810841        1.2386299549
 H         -5.2071861425       -1.3581649001        0.3126983216
 H         -6.7296411601       -1.2135683391        1.1928448239
 H         -6.7372885071       -1.4391305885       -0.5635826058
 H         -8.1716063236        0.8135777326        0.9305840782
 H         -8.1842791494        0.5910728286       -0.7967780424
 H         -7.6782139372        2.1480137727       -0.1234187796
 H         -7.1536173557        0.9560689412       -2.5083466733
 H         -5.8781968226        1.1532504730       -4.5677775670
 H         -3.4031625275        1.1095080784       -4.5067063659
 H         -2.2413232411        0.9430447518       -2.3545818485
 H         -1.5528787421        2.7739679566        0.0274077011
 H          0.9133977696        2.4424397505        0.0230721756
 H         -2.1204197089       -1.4403609052       -0.0102165038
 H         -1.3073380557       -3.2652480135       -0.0492205007
 H          2.2155569189       -5.6693470861       -0.0731898945
 H          3.6133189159       -3.6161834836       -0.0419212475
 H          6.7430821178       -1.3017534548       -0.0128214353
 H          4.7172794109        3.2281190948        0.0519982423
 H         -2.2129728801        1.4420172240        2.3079878862
 H         -3.3509590747        2.1455142638        4.3582608813
 H         -5.8239281019        2.2721172704        4.4129796718
 H         -7.1218190020        1.6008769614        2.4703527427
  66
  -109.620654899300       9.531631984759183E-003 !
 C         -6.1871842818       -0.9707629858       -0.5697900800
 C         -6.1881364132        0.5375141917       -0.2272402445
 C         -7.6393417249        1.0191349852       -0.1567593032
 C         -5.4019491022        1.2289758435       -1.3240190477
 C         -6.0021356900        1.7202355505       -2.4724784003
 C         -5.2561408620        2.1893821806       -3.5406502766
 C         -3.8739509192        2.1382108442       -3.4873918163
 C         -3.2486022890        1.6729227106       -2.3507319942
 C         -3.9980862427        1.2519432441       -1.2479228570
 N         -3.3662069406        0.8568300383       -0.0818631957
 C         -1.9538783529        0.7056301141       -0.0484605015
 C         -1.1059213255        1.8207166696       -0.1111333817
 C          0.2495066755        1.6313246961       -0.0881622641
 C          0.7992590874        0.3424324100        0.0130101348
 C         -0.0492622412       -0.7852306427        0.1078761825
 C         -1.4317688673       -0.5646755048        0.0656612228
 C          0.5287532673       -2.1023810514        0.2372367054
 C         -0.2461029809       -3.2569750184        0.3756160469
 C          0.3407861437       -4.5062575384        0.4974476958
 C         -0.4795450591       -5.6463772508        0.6407887432
 N         -1.1534850815       -6.5678819380        0.7530489256
 C          1.7412267570       -4.6422624622        0.4819823684
 C          2.5174195040       -3.5247665981        0.3522652908
 C          1.9390688475       -2.2474380212        0.2325639725
 C          2.7916580384       -1.1094697496        0.1137354597
 N          4.1115398918       -1.2414802616        0.0997168446
 C          4.9201206547       -0.1942851106       -0.0093605700
 C          6.3090239773       -0.3264337715       -0.0275325630
 C          7.1285384179        0.7900264196       -0.1451349350
 C          8.5313439423        0.6328990704       -0.1634840447
 N          9.6684737000        0.4859939476       -0.1786716226
 C          6.5619827156        2.0775438139       -0.2466822746
 C          7.3954124516        3.2094171645       -0.3695967865
 N          8.0568227165        4.1412478924       -0.4682009495
 C          5.1797786409        2.2338351713       -0.2276709678
 C          4.3385504621        1.1291824777       -0.1108288509
 N          3.0135864900        1.2476971130       -0.0876771873
 C          2.2212526493        0.1927411001        0.0141408233
 C         -4.0683885444        0.7622986406        1.1079873222
 C         -3.3763275069        0.7801742054        2.3229848200
 C         -4.0591957423        0.7275712563        3.5186598533
 C         -5.4425602568        0.6700990829        3.5178493447
 C         -6.1305410446        0.6492713010        2.3164371167
 C         -5.4700938455        0.6883479427        1.0982644519
 H         -6.7163392274       -1.5287674272        0.1992736327
 H         -6.6757891253       -1.1364049765       -1.5272195130
 H         -5.1696930651       -1.3503161645       -0.6334505438
 H         -7.6825992794        2.0788589478        0.0837901435
 H         -8.1904808918        0.4622697089        0.5948827181
 H         -8.1455409798        0.8484170779       -1.1019339821
 H         -7.0757590347        1.7331784241       -2.5582261160
 H         -5.7551188975        2.5678879993       -4.4191337026
 H         -3.2811700366        2.4634417640       -4.3283837217
 H         -2.1716162405        1.6332385827       -2.3150867670
 H         -1.5310215910        2.8111572625       -0.1704492292
 H          0.9311037022        2.4661078619       -0.1412588552
 H         -2.1229291341       -1.3906569434        0.1222084344
 H         -1.3231955645       -3.2003113057        0.3964781001
 H          2.1828511894       -5.6226713156        0.5754129354
 H          3.5942471350       -3.5921209183        0.3412682860
 H          6.7386734602       -1.3130479908        0.0497671455
 H          4.7413146250        3.2165551334       -0.3060428235
 H         -2.2993802149        0.8461811040        2.3224861288
 H         -3.5122399334        0.7396043979        4.4487534766
 H         -5.9871274721        0.6341649765        4.4485424775
 H         -7.2057323860        0.5912225734        2.3469392854
  66
  -109.620596998200       8.965154178646418E-003 !
 C         -7.6100787834        1.4506054487        0.0512197709
 C         -6.0940356432        1.6336961241       -0.0575848449
 C         -5.8004548294        3.1137534862       -0.3973333676
 C         -5.4917027676        0.8055100547       -1.1758689676
 C         -6.2083914237        0.4568462105       -2.3098477989
 C         -5.6037283934       -0.1544071922       -3.3952286509
 C         -4.2413308374       -0.3981010283       -3.3739237432
 C         -3.5056851050       -0.0786651392       -2.2531579881
 C         -4.1220588339        0.4903785544       -1.1341934966
 N         -3.3918566674        0.7439703177        0.0141454906
 C         -1.9803453742        0.5748634664        0.0148929017
 C         -1.1651788167        1.7122942260        0.0694841785
 C          0.1955954929        1.5617671973        0.0710744419
 C          0.7817521382        0.2869363688        0.0134890850
 C         -0.0340343593       -0.8681492583       -0.0363081590
 C         -1.4227123446       -0.6861102530       -0.0255425476
 C          0.5824519777       -2.1734632274       -0.0932612518
 C         -0.1580708682       -3.3562814959       -0.1684574700
 C          0.4658560007       -4.5924976054       -0.2208394608
 C         -0.3187580216       -5.7638000704       -0.2988514678
 N         -0.9615106263       -6.7117924832       -0.3632370533
 C          1.8696367478       -4.6862059369       -0.1981515963
 C          2.6124469017       -3.5408786950       -0.1298929026
 C          1.9964524985       -2.2766907602       -0.0797269082
 C          2.8157858371       -1.1095359577       -0.0246467408
 N          4.1390333721       -1.2022001746       -0.0154057702
 C          4.9172984159       -0.1274010698        0.0249999048
 C          6.3096635713       -0.2174847567        0.0293106655
 C          7.0967151602        0.9275810766        0.0669271788
 C          8.5038287569        0.8139753801        0.0677441890
 N          9.6453701341        0.7036921594        0.0662636933
 C          6.4928771278        2.2015261479        0.1027184527
 C          7.2932541878        3.3629460103        0.1416423565
 N          7.9268528276        4.3184063983        0.1740984808
 C          5.1064180995        2.3157228044        0.0998027210
 C          4.2972785525        1.1819423930        0.0610543224
 N          2.9692304647        1.2600258339        0.0523718006
 C          2.2076011691        0.1785073930        0.0136617239
 C         -4.0269352278        0.9835721074        1.2208391893
 C         -3.3179900894        0.8356165879        2.4172414646
 C         -3.9446249787        1.0211488446        3.6305803671
 C         -5.2904667962        1.3435914459        3.6664720788
 C         -5.9928340565        1.5007292825        2.4833968004
 C         -5.3858378581        1.3354247430        1.2481978970
 H         -8.0192479387        2.0986431329        0.8203730414
 H         -8.0968948639        1.7282581043       -0.8787059312
 H         -7.8577879769        0.4183964132        0.2880130872
 H         -6.2717057692        3.3809741601       -1.3404613278
 H         -4.7294748053        3.2824700081       -0.4878686809
 H         -6.1868387171        3.7600616574        0.3876501680
 H         -7.2626349616        0.6693635024       -2.3692943992
 H         -6.1917898778       -0.4158269652       -4.2611356079
 H         -3.7506317579       -0.8408263783       -4.2269318831
 H         -2.4443401133       -0.2695628779       -2.2425079187
 H         -1.6191378572        2.6904661107        0.1107916224
 H          0.8524259744        2.4166567259        0.1117031894
 H         -2.0898467981       -1.5336036281       -0.0437453284
 H         -1.2365516711       -3.3332884887       -0.1898778745
 H          2.3401085363       -5.6568786063       -0.2371243877
 H          3.6907996394       -3.5756510005       -0.1150877029
 H          6.7677742161       -1.1939214618        0.0023625487
 H          4.6395768186        3.2879966705        0.1279366606
 H         -2.2741684187        0.5644133761        2.3888152424
 H         -3.3846963293        0.9056847557        4.5457837838
 H         -5.7930883264        1.4816012071        4.6111308861
 H         -7.0348742787        1.7669358150        2.5424705732
  66
  -109.620217822100       6.002062209257821E-003 !
 C         -7.5579607330        1.7101360423       -0.0683499310
 C         -6.0301378424        1.7463443273        0.0029187757
 C         -5.5884230493        3.2067821440        0.2575604575
 C         -5.3800382945        1.3100041828       -1.2937077458
 C         -6.0068479652        1.4095762027       -2.5254924265
 C         -5.3383962621        1.1237646020       -3.7044136524
 C         -4.0094650167        0.7368798133       -3.6677794500
 C         -3.3656095996        0.6126858983       -2.4554734580
 C         -4.0416150140        0.8873209090       -1.2631383114
 N         -3.3996424765        0.7000804812       -0.0506412000
 C         -1.9891085751        0.5282762781       -0.0503955722
 C         -1.1803296879        1.6657446724       -0.1682830626
 C          0.1809525572        1.5239823799       -0.1651171617
 C          0.7743507023        0.2571821586       -0.0435653937
 C         -0.0340157402       -0.8991495440        0.0623550805
 C         -1.4243236961       -0.7261143265        0.0497326225
 C          0.5921910704       -2.1961850080        0.1767845153
 C         -0.1395745838       -3.3807426256        0.2975554726
 C          0.4934132667       -4.6086539100        0.4074303443
 C         -0.2844944245       -5.7803440337        0.5326841484
 N         -0.9277722285       -6.7240860842        0.6389980844
 C          1.8979589612       -4.6922147355        0.3978459036
 C          2.6323723792       -3.5452899854        0.2827296571
 C          2.0071978464       -2.2893276444        0.1733858926
 C          2.8185935747       -1.1201743308        0.0683780095
 N          4.1426350766       -1.2021517367        0.0705485074
 C          4.9125362371       -0.1241352212       -0.0162562851
 C          6.3055657698       -0.2020051270       -0.0085865377
 C          7.0833065826        0.9469997397       -0.0944615393
 C          8.4912041244        0.8448110677       -0.0828399118
 N          9.6335942783        0.7452486266       -0.0726951335
 C          6.4694582926        2.2128307087       -0.1914624621
 C          7.2591253284        3.3790625596       -0.2765187170
 N          7.8824535918        4.3390448902       -0.3465009547
 C          5.0820986064        2.3148266951       -0.2031543728
 C          4.2823557238        1.1771199653       -0.1176494265
 N          2.9538674098        1.2441323765       -0.1210998123
 C          2.2007924446        0.1596227648       -0.0346123210
 C         -4.1300464167        0.5285756203        1.1130370937
 C         -3.5391420370       -0.0359637462        2.2470315059
 C         -4.2865420079       -0.2763401405        3.3801195385
 C         -5.6338254994        0.0409748238        3.3972148096
 C         -6.2109709337        0.6481418986        2.2942656965
 C         -5.4799615287        0.9209608811        1.1493846098
 H         -7.9131935630        0.6977201788       -0.2458493007
 H         -7.9914291209        2.0825367596        0.8550842261
 H         -7.9165822283        2.3569137796       -0.8636438750
 H         -4.5049488328        3.2764788798        0.3237079344
 H         -6.0134970252        3.5672286903        1.1915518303
 H         -5.9266851078        3.8456559409       -0.5552495279
 H         -7.0357466549        1.7230160887       -2.5854353129
 H         -5.8540067058        1.2122432211       -4.6479941344
 H         -3.4770086122        0.5217210816       -4.5813908133
 H         -2.3363033208        0.2904138601       -2.4232264522
 H         -1.6402033132        2.6378108377       -0.2592565811
 H          0.8326643794        2.3794659808       -0.2503924634
 H         -2.0858085941       -1.5760519575        0.1111788071
 H         -1.2183309187       -3.3657941059        0.3099568426
 H          2.3757122751       -5.6563360922        0.4829573423
 H          3.7110241835       -3.5722476691        0.2746575571
 H          6.7719598622       -1.1719379584        0.0665838433
 H          4.6073740586        3.2807062426       -0.2789655413
 H         -2.4902187642       -0.2865708036        2.2381665655
 H         -3.8171600265       -0.7168610519        4.2462536717
 H         -6.2306691761       -0.1601518455        4.2731750743
 H         -7.2521429028        0.9189833211        2.3481989421
