79
 energy: -128.139729583255 gnorm: 0.000056089241 xtb: 6.7.1 (edcfbbe)
C            0.90704538118719        1.19566328574131        3.14992890623656
C            2.26216827881059        1.26897349733990        2.88757872197656
C            2.82383143563176        0.47358672167117        1.90285755328922
C            2.02940159501003       -0.38270371711479        1.12268357128929
C            2.58995135546519       -1.34489878801409        0.23470177428206
N            3.94575074381930       -1.34097037230634       -0.07114271452093
C            4.80348457816422       -2.41939652955584        0.03940427039340
C            4.56865955027136       -3.68101017656250        0.57050588858763
C            5.62221829465301       -4.57588712069743        0.59833416028236
C            6.88516661907770       -4.22674673964067        0.12461665326277
C            7.13295391895773       -2.96167261801657       -0.37687684061402
C            6.09038522594044       -2.04776797850538       -0.41757078355989
C            5.99321265629868       -0.67441499405604       -0.83507881642295
C            6.89703185219094        0.22162732981225       -1.38734778083497
C            6.45542834136349        1.49175159103336       -1.70984464435758
C            5.12849331267412        1.86372793702882       -1.50357955497617
C            4.20926529538914        0.98908212614689       -0.95510999950700
C            4.65486030915064       -0.27841726428235       -0.60295908034471
C            1.77197912020540       -2.38333389696294       -0.28240502035658
C            0.42302395626876       -2.35269649956173       -0.13000821756259
C           -0.21037143560540       -1.24120850114041        0.52118107173150
C           -1.57964962800936       -1.06300964609038        0.28569234717056
N           -2.39687889243462       -2.08191437276624       -0.02545506776943
C           -3.61201521586287       -1.55811989165170       -0.18665339845310
C           -4.82616315727125       -2.25897526978004       -0.44744846723639
C           -4.84618453677754       -3.65446048186037       -0.52759841223440
C           -6.02943936680587       -4.32332837805188       -0.73714381800527
C           -7.20985531653695       -3.59528634965158       -0.85804020843890
C           -7.20005951908419       -2.21905835626575       -0.78883520922724
C           -6.01089114068512       -1.50141476090968       -0.59396426925839
C           -5.95640661336996       -0.04963958679920       -0.56769043737857
C           -7.09060535563776        0.72685871451557       -0.82920901579605
C           -7.04813959861044        2.10303649797343       -0.86084034689125
C           -5.84139765226464        2.76690003444519       -0.64852724233962
C           -4.70610674965627        2.04632684280343       -0.38079172097943
C           -4.72928823674024        0.63903910378282       -0.30836742683348
C           -3.58560300511706       -0.14856665198662       -0.04155245006402
N           -2.28533383097135        0.15560916978223        0.28326175556737
C           -1.66669924343015        1.41413934846648        0.38650597233349
C           -2.06313962172594        2.33286582202379        1.35703470871916
C           -1.39260440296701        3.53104539048120        1.48414365122261
C           -0.31656991115350        3.83272768902545        0.65752719236981
C            0.05953591503585        2.92589123301346       -0.33976146602241
C           -0.61468806916543        1.72063544756816       -0.46497737666661
O            1.08256178848279        3.18823514491285       -1.21150701549437
C            1.45989794962027        4.55251311430272       -1.23612087845307
C            1.59230508556809        5.08575571892224        0.18842926818135
O            0.34478920860365        5.01513515841199        0.85297717923333
C            0.62173309744641       -0.37962996481811        1.32710360051817
C            0.10074132413306        0.36064787748495        2.38430841607657
H            0.46998997144754        1.77730573896019        3.94746193470830
H            2.89462476466392        1.92493344190110        3.46837934472823
H            3.89256553376135        0.49454093882205        1.75182552415851
H            3.59985393316288       -3.95136900239508        0.96159446395285
H            5.46393677880779       -5.56463019179997        1.00294096652368
H            7.68318403192660       -4.95338810382820        0.16247055996065
H            8.11743591147210       -2.68618666512237       -0.72379137749755
H            7.92037925108154       -0.07186837046008       -1.56610672404716
H            7.14383832907723        2.20559471437212       -2.13749526773866
H            4.81000798209420        2.85648061500721       -1.78403512807124
H            3.18038580494989        1.28033664900270       -0.80978621276084
H            2.23843499741602       -3.16209893237809       -0.86670071236289
H           -0.21526986200957       -3.09407378934671       -0.58196587690564
H           -3.91025173547980       -4.17938817047307       -0.41273654259274
H           -6.04694595827828       -5.40124162232258       -0.79898112434764
H           -8.14593661432574       -4.11344353132307       -1.00899242676412
H           -8.14030420774401       -1.69996831498891       -0.88401142714523
H           -8.03409148219525        0.24488777969854       -1.02791326235663
H           -7.94652927313512        2.66573316585490       -1.06645741353707
H           -5.79787218459956        3.84472027057824       -0.70105715654541
H           -3.77113511642280        2.56355717619805       -0.24273866692250
H           -2.88384408856793        2.09748914094836        2.01736143475477
H           -1.67437963528728        4.24834479307968        2.23805924921920
H           -0.30358817766736        1.02919856292263       -1.23242092228936
H            2.40934107132616        4.59869921206378       -1.76910437366623
H            0.70202012275807        5.13594763358931       -1.77578350860661
H            1.88252760633337        6.13698150913655        0.19428083502751
H            2.33683448889914        4.49006994226980        0.73241090174940
H           -0.94558678511011        0.26219398446662        2.62993769053557
