79
 energy: -128.218967872817 gnorm: 0.000126166618 xtb: 6.7.1 (edcfbbe)
C            0.68983221279766        0.63097710212399        3.23287008705660
C            2.08517175401982        0.69115625666995        3.11313079903471
C            2.71187755152187        0.10024596161622        2.05149139158726
C            1.97002598777325       -0.55195112378076        1.04362168428864
C            2.59321679824484       -1.22732672268951       -0.04157842634408
N            3.98951406907385       -1.18043213912123       -0.19375644777146
C            4.83447050058182       -2.27126680060562       -0.19710774643913
C            4.54097576142401       -3.61093329594976        0.01335641874822
C            5.58922779922969       -4.51072559038311       -0.01418216892250
C            6.90020054130849       -4.09317451272564       -0.23869017337295
C            7.19910838242383       -2.75912746675067       -0.43287631428741
C            6.16241488285557       -1.83438111585395       -0.41033980657991
C            6.10260648920743       -0.40624797463542       -0.55700363735774
C            7.05690507242762        0.57538108242576       -0.79423147971441
C            6.64312590244101        1.88850801882911       -0.89999897655426
C            5.29539469926993        2.22823950088162       -0.79157672469041
C            4.32645358241818        1.27145767802213       -0.55757749601735
C            4.74144086326888       -0.04629025270626       -0.42304146618344
C            1.83718676087311       -1.95189165412074       -0.93226274976498
C            0.44292764966332       -1.94623235190300       -0.84961307587365
C           -0.20191652201004       -1.22760971433041        0.13016869775350
C           -1.65779692083114       -1.11458560545647        0.07239607948693
N           -2.48851484185953       -2.12200643033665        0.03821951706015
C           -3.73231682864673       -1.57385104448408       -0.07544590881021
C           -4.98253540418256       -2.25208771163207       -0.10921747822557
C           -5.05702521321580       -3.64616349581806       -0.00976132299081
C           -6.27551505573212       -4.27815051136636       -0.00788232940294
C           -7.44048654752884       -3.51834528331442       -0.10113404257087
C           -7.37922091804216       -2.14816012576041       -0.20672169288522
C           -6.15255543996055       -1.46572313675361       -0.22392769842019
C           -6.05299107022812       -0.02413112199635       -0.37841072555243
C           -7.18764380314265        0.77376762156443       -0.58807591263627
C           -7.09797422471499        2.13033220643504       -0.79339362433901
C           -5.85326739851804        2.75248298749952       -0.81773396019947
C           -4.71815571001582        2.00957137379511       -0.60468953597984
C           -4.79056569964374        0.63045022429740       -0.35963200224212
C           -3.64512361119630       -0.18493335190175       -0.13322112775885
N           -2.30151296665833        0.10178502665865       -0.02452654795214
C           -1.64011308057067        1.34192695600840        0.07096850240154
C           -1.98764287304069        2.25648108786607        1.06252706211192
C           -1.25682254764472        3.41632130942283        1.21274009740050
C           -0.16507362470505        3.67704268220480        0.39281728920253
C            0.15820178113596        2.77701230482626       -0.62893973960567
C           -0.58177815469539        1.61322931219331       -0.78270850076688
O            1.19647531223377        2.99668079463278       -1.49207736506874
C            1.68594456885555        4.32497765677440       -1.46344403792146
C            1.83206324952746        4.79929371078673       -0.01928237822208
O            0.56932152008275        4.80919936015040        0.62007667958767
C            0.55361307947428       -0.57604442854256        1.14216558212345
C           -0.05612533102726        0.00678425816695        2.27256183626839
H            0.20877372498122        1.06918319192501        4.09448619472592
H            2.66529717019938        1.18394787612094        3.87915984357668
H            3.78944878598501        0.11233877927623        1.98630452929070
H            3.52804630197940       -3.93746898516780        0.19633219155930
H            5.38894949863472       -5.56053320444800        0.14361443006107
H            7.69206425239592       -4.82771044043376       -0.25494446712144
H            8.21672328136253       -2.43711689603262       -0.59669410784353
H            8.09930903314249        0.31230127760872       -0.89480192807585
H            7.37007030624729        2.66692222778145       -1.08006393027752
H            5.00474256219531        3.26358619389839       -0.89473836046784
H            3.28139984409734        1.53343577766953       -0.48969285573319
H            2.32439597224542       -2.49373049198978       -1.72933842255493
H           -0.14015983700810       -2.47578687471162       -1.58793245244037
H           -4.13170006445742       -4.19611514540053        0.07144526547475
H           -6.33535489113923       -5.35382457985138        0.07037099924920
H           -8.40254887523576       -4.01038012112076       -0.09094332311322
H           -8.30661456985782       -1.60197588182620       -0.27363596944078
H           -8.16564915202519        0.32080177343945       -0.60233367848592
H           -7.99474618164862        2.71122498641244       -0.95189318923643
H           -5.77883182653626        3.81316262922007       -1.00712090608104
H           -3.75271134304379        2.48898189912659       -0.64238174536859
H           -2.81932721711709        2.04966692597376        1.71820326080046
H           -1.50002919453998        4.13064829798624        1.98254076592312
H           -0.30995143558027        0.92927810344770       -1.57075657840644
H            2.64645490938813        4.30590626852598       -1.97851242724185
H            0.99082286205580        4.98675501449459       -1.99669378636324
H            2.20697467833434        5.82213090661941        0.02720041001693
H            2.51275096137687        4.12658003752862        0.51922784156634
H           -1.12624613872301       -0.07710560785285        2.38758929532898
