176
 energy: -269.922173445453 gnorm: 0.000151844177 xtb: 6.7.1 (edcfbbe)
C            1.11911344170574        4.91057954038294        0.93420411672565
C            2.07005854410371        3.95918464800210        0.93133866925196
C            3.47187967529571        4.19811912124193        0.79583956558180
N            4.04869999678702        5.36373212971072        0.59203933969526
C            5.37977083726670        5.11358928097665        0.51500569825431
C            6.43791139328005        6.04669175090415        0.32185186761113
C            6.18251816900127        7.41605970865986        0.18832872311498
C            7.21658616751184        8.30505100410618        0.03014911150009
C            8.52721750106297        7.83172275416429        0.00643115563706
C            8.79064401978393        6.48729982052799        0.13163087729569
C            7.76090660024961        5.54644315175425        0.28906481453150
C            8.00994214857475        4.11859891032896        0.39842627867865
C            9.30419727170445        3.58473715561705        0.31441092592874
C            9.54132762397533        2.23163488717341        0.38073834285924
C            8.48062770001770        1.34105264093998        0.51954002661798
C            7.19829424543098        1.82270913324693        0.61235478727482
C            6.93800249287486        3.20084064556110        0.57489571685363
C            5.62963856821775        3.74866938322995        0.67553388756073
N            4.39808794332968        3.17020871581419        0.85790680107415
C            4.08689766988016        1.84255257022249        1.22067341200878
C            4.49560843085817        1.34094628496593        2.45423049856243
C            4.11873626748595        0.07393267802119        2.84875460952560
C            3.31016730760364       -0.71260631166118        2.02528657149131
N            2.85742034902487       -1.96711864409169        2.44697561466381
C            1.51038855625471       -2.30197398129995        2.26192243701082
C            0.52548103935156       -1.31371904858939        2.31688542735221
C           -0.80490196478858       -1.64234528014173        2.14133593803020
C           -1.18166149804295       -2.95794580130440        1.92584097687663
C           -0.21005121448565       -3.94480792811119        1.88125824917449
C            1.12558473071323       -3.62377151488129        2.03595053801725
C            3.72506958737839       -2.82520043182351        3.13427999493172
C            3.26789066575380       -3.62566917334816        4.18041269847025
C            4.13922574873955       -4.46800739096672        4.84387535146374
C            5.47763059524960       -4.51636033908293        4.48927260300769
C            5.93878060476073       -3.71492920072459        3.45761079929846
C            5.07246943204799       -2.87966971052348        2.77945078830084
C            2.93059415374061       -0.21396601546055        0.77837494983323
C            3.31165301172562        1.05027885577787        0.37957242490846
C           -0.29592951668231        4.61522884414098        1.02282784688672
C           -0.80051269044760        3.37435328545453        0.61832305413955
C           -2.13615996133615        3.07715192982785        0.74629172740183
C           -3.03501706251536        4.00064752877034        1.28973084377723
C           -4.43536050782537        3.59449865863161        1.44568061328993
C           -5.51463354274007        4.43173916082159        1.16213564600892
C           -6.81142243364552        3.94953158166495        1.15547991018690
C           -7.05714603948119        2.60592663054708        1.43207007220930
N           -8.30861410240807        1.99093670074135        1.23018387719304
C           -9.48663968218234        2.46540147973151        1.77891051793582
C          -10.71908904010156        2.09779620903735        1.23084272471052
C          -11.89293715138870        2.56741307575088        1.78483950997798
C          -11.86410144041676        3.41570705727084        2.88136136074938
C          -10.64412558208031        3.79093839444604        3.42285671090480
C           -9.46313992524609        3.32092595243232        2.88400023881179
C           -8.21399162631813        0.80424697010554        0.49488034702398
C           -8.78003960429408       -0.41043671284719        0.90206252982251
C           -8.39096612519753       -1.58779376320988        0.30812330909439
C           -7.43528077336563       -1.61984077801335       -0.73261592320811
C           -6.74304091601275       -2.80540607582995       -1.14500258623830
C           -6.67332493317963       -3.97111935567633       -0.33376081356967
C           -5.67049154000503       -4.88036682270555       -0.48188305853512
C           -4.62071544052656       -4.67477290321004       -1.42954286836233
C           -3.38341979363449       -5.30004932867724       -1.28731822875015
C           -2.20855490356783       -4.77362749566113       -1.84177106636484
C           -0.92568259566249       -5.14848003042891       -1.47899928574441
N           -0.56420955707489       -6.20272893164377       -0.73405140599641
C            0.74674276266420       -6.06495430578622       -0.50123031973934
C            1.58567291159585       -6.89745371078622        0.29667509446179
C            1.07986285133823       -8.04445294452101        0.91658999919600
C            1.88344530889445       -8.81612095484451        1.72138549012121
C            3.21031155034985       -8.44129971991642        1.91842121586841
C            3.72178443146808       -7.31704312384944        1.30991505410828
C            2.93551490112555       -6.50858841871385        0.47547485169482
C            3.45631636395302       -5.32727489696623       -0.19113118897290
C            4.79425148336665       -4.93549819805859       -0.06429797045048
C            5.29859247441212       -3.83327268210478       -0.71656332509285
C            4.47796202699639       -3.07533459926394       -1.54976551763415
C            3.15891015949234       -3.41945741502280       -1.69698064697360
C            2.61389872204718       -4.52488679492745       -1.01784331472716
C            1.25403958679296       -4.89773806035509       -1.11440504751435
N            0.19203989010864       -4.33717786028850       -1.76991215152329
C            0.08728263635617       -3.03839027852109       -2.29781479457965
C            0.29840768198945       -1.94080036481625       -1.46543958656093
C            0.15368514993855       -0.66011202116627       -1.94991658124132
C           -0.22602341392492       -0.44155007535046       -3.27753031790882
N           -0.39683367935406        0.85525455358916       -3.75369365215632
C            0.44738411964015        1.88493615916390       -3.30691143621919
C            1.81932277074933        1.66867896155469       -3.18584725754624
C            2.65001217050518        2.69458189464981       -2.77267437171382
C            2.12819609007488        3.94125676691788       -2.46570817934916
C            0.76404372026607        4.15662130205186       -2.57844628638549
C           -0.07336895451338        3.14075376254948       -2.99787761429029
C           -1.40926787854591        1.14598135676005       -4.67860423017495
C           -2.65145383734264        0.51768048708690       -4.58996830412488
C           -3.64271485258453        0.80727105883612       -5.50796371621165
C           -3.41782904168192        1.72922150998669       -6.51772164707838
C           -2.18821334691772        2.36200891966563       -6.60406778711292
C           -1.18749116139136        2.07352425296370       -5.69586907558187
C           -0.43911341881830       -1.54646621081820       -4.10655425160019
C           -0.28525019335975       -2.82984985831177       -3.62308578735151
C           -4.88436795709096       -3.68880358516145       -2.43142142532499
C           -5.90397396299184       -2.80500249326449       -2.29452568829456
C           -7.02714451166041       -0.36681769948436       -1.24579742125512
C           -7.38692454412836        0.80302405252370       -0.63841767211903
C           -5.99201673912650        1.79168816000526        1.82516268781303
C           -4.70811272409882        2.27914066356388        1.83345878344184
C           -2.54732428155512        5.25773723336931        1.64562378992069
C           -1.20638305899317        5.55969608382824        1.50879540168712
H            1.41741489839184        5.94865601454572        0.88969609040799
H            1.79283443378664        2.92104646531644        1.04423475245179
H            5.15395843200108        7.74217164832583        0.21863631120016
H            7.02110759519693        9.36249949458353       -0.07162588973932
H            9.34576284728989        8.52714193633884       -0.11238973679716
H            9.82036454737329        6.16762893916689        0.10868131915290
H           10.14870861463329        4.24254736560184        0.18748587905274
H           10.55306409526089        1.85904488039012        0.31398687852790
H            8.66437771085849        0.27711878598529        0.55109665462791
H            6.37396422013157        1.13335651605891        0.70694084238824
H            5.09941565797283        1.95629886566711        3.10509575491814
H            4.42801284960929       -0.30558907479651        3.81094286426631
H            0.80808849656408       -0.28861574289538        2.50715278178217
H           -1.55386180048646       -0.86631841775920        2.18717316927484
H           -2.22215753986725       -3.21355196831849        1.79438957415130
H           -0.49265361582233       -4.97305365829972        1.71210618120451
H            1.87798198006861       -4.39652092437204        1.98557611009798
H            2.22908548196444       -3.58056926704192        4.47295326651977
H            3.77035181101269       -5.08365347759688        5.65124657410232
H            6.15541144931488       -5.17283198096933        5.01385016248082
H            6.98025044846357       -3.74639880830673        3.17187764603665
H            5.43078271530998       -2.26657763599314        1.96602371738348
H            2.33398519135957       -0.82720028538780        0.12232543167253
H            3.01056050703594        1.43208873260523       -0.58475753861581
H           -0.13723787410503        2.64984102526255        0.17168974140176
H           -2.50255490540915        2.12238394546580        0.39799381203276
H           -5.33282383626196        5.45975181726538        0.88521977744454
H           -7.63202432294794        4.59778002309459        0.88442219434174
H          -10.74341846376930        1.45360354455297        0.36426399986012
H          -12.83887053710178        2.27579689581209        1.35209568673983
H          -12.78485478958113        3.78234913569966        3.30926204224586
H          -10.61266528726820        4.44874350164247        4.27929420386910
H           -8.51525941333785        3.60047010965815        3.31972753996350
H           -9.47136297173710       -0.42428078262474        1.73255455321846
H           -8.80775056234036       -2.51317286225381        0.67532421455725
H           -7.38719979443754       -4.10460960847883        0.46506754637153
H           -5.59658998624412       -5.72384386792635        0.19010824697924
H           -3.27862646642169       -6.11341543604917       -0.58324232528228
H           -2.28808520928527       -3.89644883524949       -2.46620033134640
H            0.04406820626778       -8.29481001527162        0.74316223212879
H            1.49272223523049       -9.70214800953255        2.19948286448932
H            3.84748321235286       -9.03865911279312        2.55459689400719
H            4.75451479420770       -7.06640474151303        1.49218283904381
H            5.46358470223094       -5.50658811877025        0.55813244087546
H            6.33687359714458       -3.56309262143812       -0.59195280715165
H            4.87909379393632       -2.22177081942310       -2.07665399057968
H            2.52505808195053       -2.84467436339803       -2.35404806636183
H            0.55284593133992       -2.11576097848747       -0.43064553693178
H            0.31080917882796        0.18515628923742       -1.29741436310946
H            2.22848362532264        0.69806872873720       -3.42785974755661
H            3.71596590207966        2.52469579145993       -2.70672120534239
H            2.77850613066615        4.73798494379188       -2.13822642355354
H            0.34923699904924        5.12229717455289       -2.33243669309151
H           -1.13604874200648        3.31125912286286       -3.08732088251954
H           -2.83244125694398       -0.19268487103434       -3.79601941114933
H           -4.60138931042144        0.31554580307000       -5.43133787711015
H           -4.19597076391052        1.95313783266178       -7.23174129212036
H           -2.00265575642616        3.07944706893256       -7.39002473964646
H           -0.22661755194779        2.56156205878710       -5.76988298706085
H           -0.72299947137331       -1.39087048003733       -5.13656946345169
H           -0.44105663843420       -3.67854121819465       -4.27312094454105
H           -4.25742509242552       -3.65615196133560       -3.31019916525932
H           -6.08013116530127       -2.08094209549768       -3.07598891448025
H           -6.35475577133412       -0.32118204653330       -2.08666830550902
H           -7.00432176382928        1.74343777190154       -1.00792184349542
H           -6.18543868740529        0.76488309537963        2.09925609551783
H           -3.89861429965511        1.63593629777402        2.14222070964776
H           -3.22132103646767        5.99457730332175        2.05824448424844
H           -0.84376354637517        6.53327305641850        1.80714137915431
