  68
  -95.3011922566000       0.259773656776358      !
 C         -4.4859351370       -0.0649764773        2.3597526612
 C         -4.5935171479       -0.0184289178        0.8316351454
 C         -5.3919564701        1.2132244959        0.3916261794
 C         -5.2022989001       -1.2922375176        0.2883055996
 C         -6.4496014107       -1.8144553958        0.5128553830
 C         -6.8001848213       -3.0199348187       -0.0967891963
 C         -5.8975460195       -3.6854329294       -0.9230506741
 C         -4.6403780999       -3.1751135309       -1.1605349285
 C         -4.2777991769       -1.9641998212       -0.5538960154
 C         -3.0783992061       -1.2087093104       -0.6168373829
 C         -1.8695073642       -1.4251893131       -1.3081523342
 C         -0.8545009465       -0.5192811996       -1.1858438761
 C         -0.9985749608        0.6429918007       -0.3860269428
 N          0.0454488548        1.5390662750       -0.2595525239
 C         -0.2320549516        2.9042945267       -0.1221532057
 C         -1.2743709584        3.4863754372       -0.8477129852
 C         -1.5460298372        4.8320061320       -0.7079544904
 C         -0.7875159673        5.6158241333        0.1493661589
 C          0.2485800951        5.0413374109        0.8712449780
 C          0.5277685177        3.6960455285        0.7419743478
 C          1.3547128722        1.1002201843       -0.2669779715
 C          2.3771933404        1.8993108939       -0.8369844021
 C          3.6712589156        1.4645416481       -0.8875089074
 C          3.9980017540        0.1991545513       -0.3585673459
 C          2.9698136844       -0.6070217476        0.2135792362
 C          1.6815459035       -0.1774449521        0.2619063144
 C          3.5489854915       -1.9115955076        0.7130265483
 C          2.9335974664       -3.0993919126       -0.0356536930
 C          3.3478721600       -2.0722370972        2.2231006941
 C          5.0118944553       -1.7458798157        0.3662765732
 C          6.0518377328       -2.6131319700        0.5800429017
 C          7.3357090669       -2.2455822629        0.1751372006
 C          7.5609347818       -1.0157569200       -0.4387854867
 C          6.5278746199       -0.1323635177       -0.6624485541
 C          5.2338999943       -0.4918090090       -0.2607053438
 C         -2.2204355331        0.8690764598        0.3022040599
 C         -3.2252598344       -0.0383912344        0.1879201306
 H         -5.4758556531       -0.1251037129        2.8058337110
 H         -3.9890492930        0.8282685067        2.7321430934
 H         -3.9131611534       -0.9368733086        2.6687200011
 H         -6.3955728533        1.1810133123        0.8090613320
 H         -4.9021424150        2.1237388110        0.7304450530
 H         -5.4688972270        1.2418173700       -0.6933343391
 H         -7.1594285057       -1.3086954727        1.1521531451
 H         -7.7796200623       -3.4409141313        0.0742388668
 H         -6.1933544684       -4.6175307360       -1.3835641972
 H         -3.9435639214       -3.6932358918       -1.8024983971
 H         -1.7568332428       -2.2915031021       -1.9420142442
 H          0.0662980554       -0.6516894759       -1.7351211413
 H         -1.8517462874        2.8754952715       -1.5258215205
 H         -2.3493685206        5.2755107113       -1.2769469963
 H         -1.0025200230        6.6681060740        0.2541895361
 H          0.8374270116        5.6456451759        1.5448971337
 H          1.3226987044        3.2409410807        1.3140937698
 H          2.1056395630        2.8528351052       -1.2669892907
 H          4.4370908761        2.0752498737       -1.3407179297
 H          0.9028915435       -0.7663297291        0.7240260885
 H          3.0829158156       -2.9843123187       -1.1072854132
 H          3.4012756013       -4.0286171669        0.2811096841
 H          1.8656379255       -3.1597853143        0.1626121394
 H          2.2876720918       -2.1271336756        2.4600430484
 H          3.7803146349       -1.2252909132        2.7517409701
 H          3.8304256505       -2.9818880563        2.5726973750
 H          5.8911592355       -3.5704566947        1.0553622237
 H          8.1622309713       -2.9205931610        0.3395256502
 H          8.5646600935       -0.7550081115       -0.7436952249
 H          6.7058444003        0.8201100990       -1.1392123211
 H         -2.3154025211        1.7434865644        0.9298759909
  68
  -95.3009799351000       0.207500382899642      !
 C         -4.4186536522       -0.0792976310        2.4028949177
 C         -4.5769467999       -0.0137393486        0.8801368813
 C         -5.3752047714        1.2323707672        0.4814416130
 C         -5.2195289480       -1.2719556330        0.3398197627
 C         -6.4612990321       -1.7870132782        0.6076639889
 C         -6.8497769521       -2.9766655845       -0.0097374424
 C         -5.9907432827       -3.6323435670       -0.8885387490
 C         -4.7391196042       -3.1296644977       -1.1686351326
 C         -4.3373904116       -1.9363219502       -0.5522631129
 C         -3.1302379504       -1.1951306153       -0.6440429317
 C         -1.9467770544       -1.4158264707       -1.3769516313
 C         -0.9115252682       -0.5308158753       -1.2650934833
 C         -1.0129475898        0.6164215376       -0.4391138832
 N          0.0451324778        1.4978774402       -0.3236807806
 C         -0.2234415339        2.8628825435       -0.1572499452
 C         -1.2637212221        3.4634382980       -0.8704798589
 C         -1.5287554527        4.8074304580       -0.7052369742
 C         -0.7660220643        5.5708630293        0.1667552170
 C          0.2667828317        4.9773871659        0.8779374466
 C          0.5397255645        3.6335403747        0.7226021549
 C          1.3514323486        1.0546681016       -0.3481112747
 C          2.3766818949        1.8784231680       -0.8783048655
 C          3.6792996282        1.4686656376       -0.8944270562
 C          4.0125458280        0.2019477894       -0.3725018618
 C          2.9779186503       -0.6424054487        0.1301131490
 C          1.6810676726       -0.2365251220        0.1460131706
 C          3.5651716914       -1.9482477581        0.6175271136
 C          3.0482180946       -3.1186153562       -0.2282131517
 C          3.2605030230       -2.1878271458        2.0988576753
 C          5.0421390275       -1.7238921755        0.3801142673
 C          6.0961847892       -2.5558113920        0.6558965356
 C          7.3912603612       -2.1336299722        0.3519288338
 C          7.6133597300       -0.8865549037       -0.2276713463
 C          6.5662963153       -0.0388690669       -0.5146036496
 C          5.2612698111       -0.4518597020       -0.2111053404
 C         -2.2099087109        0.8485382509        0.2893291478
 C         -3.2322979848       -0.0406186508        0.1892042724
 H         -5.3934461948       -0.1395564442        2.8810812298
 H         -3.9048732066        0.8068982007        2.7692070902
 H         -3.8407174855       -0.9576863782        2.6824665651
 H         -6.3641909713        1.2069578697        0.9329198784
 H         -4.8629082601        2.1330526261        0.8132568841
 H         -5.4890086913        1.2744674446       -0.5998273717
 H         -7.1381116814       -1.2871807804        1.2863114378
 H         -7.8251796700       -3.3919649567        0.1949969627
 H         -6.3162840377       -4.5509624635       -1.3560058334
 H         -4.0759515518       -3.6410536413       -1.8504485346
 H         -1.8682425808       -2.2704987447       -2.0315074448
 H         -0.0082187136       -0.6679391308       -1.8418358503
 H         -1.8449352287        2.8676324330       -1.5586618664
 H         -2.3302654153        5.2656213288       -1.2650856418
 H         -0.9755921388        6.6220411697        0.2915830841
 H          0.8579445244        5.5654347888        1.5638454549
 H          1.3311091731        3.1633773422        1.2873650189
 H          2.1019894042        2.8354279109       -1.2983586431
 H          4.4480072908        2.1014222414       -1.3109454323
 H          0.8989849937       -0.8513013616        0.5665195677
 H          3.2799623660       -2.9524932902       -1.2782887912
 H          3.5174116715       -4.0476992376        0.0868461686
 H          1.9701237422       -3.2163594973       -0.1204981786
 H          2.1888579303       -2.2929089286        2.2528090069
 H          3.6187773007       -1.3520800571        2.6962235982
 H          3.7514783716       -3.0951302632        2.4427063022
 H          5.9386663993       -3.5256607364        1.1061990779
 H          8.2291530556       -2.7789648509        0.5693831348
 H          8.6260060871       -0.5831734179       -0.4533181861
 H          6.7417103861        0.9275701422       -0.9633729878
 H         -2.2712151264        1.7118375500        0.9362310602
  68
  -95.3009228749000       0.195342099066165      !
 C         -1.8534290880       -2.9184557911        1.2049759446
 C         -2.8728789619       -1.7823934240        1.3389444854
 C         -2.9854782051       -1.3388944897        2.8014565369
 C         -4.2219751343       -2.1828265441        0.7846590608
 C         -5.0522368978       -3.1966128906        1.1872972600
 C         -6.2673959592       -3.3809676936        0.5264454967
 C         -6.6348899348       -2.5478200784       -0.5276271750
 C         -5.8128874095       -1.5246881297       -0.9460155851
 C         -4.5885839400       -1.3319359283       -0.2909133335
 C         -3.5533332374       -0.3842088884       -0.5017123318
 C         -3.4231078626        0.6714622594       -1.4275720126
 C         -2.3008137430        1.4501246268       -1.4043381630
 C         -1.2601346121        1.2121404106       -0.4722358595
 N         -0.1099982668        1.9771868061       -0.4948614823
 C         -0.1805380949        3.3319033135       -0.8386078249
 C          0.8235353111        3.9144539166       -1.6153695036
 C          0.7508125205        5.2516340880       -1.9484734516
 C         -0.3175799514        6.0247899917       -1.5183049433
 C         -1.3176387546        5.4491796902       -0.7483320708
 C         -1.2545141453        4.1135515682       -0.4069617706
 C          1.1105223509        1.4117098321       -0.1800947885
 C          2.0984243452        2.1673691886        0.4995984895
 C          3.2945402320        1.6123349333        0.8560843266
 C          3.5559143618        0.2642114474        0.5347596521
 C          2.5637652539       -0.4968513269       -0.1519970689
 C          1.3702522387        0.0513469170       -0.5002966871
 C          3.0664836047       -1.9013115593       -0.4016793595
 C          3.1554040298       -2.1997362279       -1.9020560508
 C          2.1745349917       -2.9352548497        0.2937286274
 C          4.4408991270       -1.8473657308        0.2275044613
 C          5.3855861680       -2.8363633447        0.3201151870
 C          6.6016770113       -2.5564048542        0.9448212336
 C          6.8553376794       -1.2906353772        1.4681595014
 C          5.9175722178       -0.2851436800        1.3848997943
 C          4.6916113047       -0.5558174863        0.7609649118
 C         -1.3896663023        0.1485738177        0.4616272164
 C         -2.5101278485       -0.6199088229        0.4421225754
 H         -2.1608970550       -3.7742809255        1.8011563149
 H         -0.8739834957       -2.5901861015        1.5458343233
 H         -1.7761027950       -3.2318235459        0.1657139012
 H         -3.3142485571       -2.1687403801        3.4226074289
 H         -2.0219152779       -0.9902041625        3.1664357526
 H         -3.7070603809       -0.5297898956        2.8936132547
 H         -4.7799567783       -3.8491565166        2.0047845295
 H         -6.9291727860       -4.1761988669        0.8354564609
 H         -7.5812219016       -2.7118977432       -1.0234626360
 H         -6.1003481575       -0.8817286662       -1.7646250776
 H         -4.1992073094        0.8505596598       -2.1557971181
 H         -2.1727312453        2.2434415759       -2.1269485879
 H          1.6447212719        3.3043992218       -1.9614849731
 H          1.5279523323        5.6931594310       -2.5541272007
 H         -0.3704290169        7.0699896334       -1.7814976224
 H         -2.1476983987        6.0483801515       -0.4053508839
 H         -2.0218571351        3.6647483391        0.2062997170
 H          1.8715499639        3.1902566172        0.7645123707
 H          4.0309258602        2.1933019572        1.3899448380
 H          0.6262144904       -0.5075307028       -1.0486398508
 H          3.7858060533       -1.4622669922       -2.3945203647
 H          3.5837522708       -3.1858741976       -2.0652285238
 H          2.1660816407       -2.1701540899       -2.3533462117
 H          1.1712379426       -2.9126453036       -0.1259400611
 H          2.1137582618       -2.7216967233        1.3590896904
 H          2.5835629171       -3.9345479762        0.1651216862
 H          5.2025173463       -3.8222840691       -0.0832932138
 H          7.3535826664       -3.3274366202        1.0217582204
 H          7.8053424234       -1.0992431346        1.9469826166
 H          6.1168242994        0.6945850714        1.7931684485
 H         -0.6093714748       -0.0022355535        1.1930721513
  68
  -95.3007679550000       0.165805752355850      !
 C         -2.2885878638       -3.0073864848        1.3292199197
 C         -3.1604388772       -1.7478775659        1.3616761007
 C         -3.2401702481       -1.1909924359        2.7873589887
 C         -4.5419673793       -2.0212612091        0.8080632327
 C         -5.5068543701       -2.8750229083        1.2769053509
 C         -6.7291285449       -2.9508795966        0.6074748643
 C         -6.9683749814       -2.1741849737       -0.5238004081
 C         -6.0102780575       -1.3121717083       -1.0097111580
 C         -4.7802612273       -1.2260003408       -0.3427279006
 C         -3.6362755805       -0.4249665767       -0.5935250756
 C         -3.3768606464        0.5436452130       -1.5836482238
 C         -2.2017359987        1.2377147003       -1.5454750817
 C         -1.2306528365        0.9878735426       -0.5433110531
 N         -0.0829689819        1.7544632182       -0.4968327812
 C         -0.1587860943        3.1068580436       -0.8587149784
 C          0.8631331724        3.6953391167       -1.6069824897
 C          0.7833852725        5.0281756861       -1.9550093984
 C         -0.3085135909        5.7908875682       -1.5664433854
 C         -1.3262244726        5.2087702662       -0.8246339038
 C         -1.2573355373        3.8770676095       -0.4704518072
 C          1.1311943685        1.2344924532       -0.0970156260
 C          2.0525105033        2.0546880304        0.6028146835
 C          3.2850530977        1.5910251997        0.9619497377
 C          3.6543212376        0.2758439321        0.6141780986
 C          2.7169256760       -0.5626188392       -0.0615166505
 C          1.4790211787       -0.1098525540       -0.3969436330
 C          3.3425429269       -1.9115143837       -0.3440276002
 C          3.4064316131       -2.1849072989       -1.8506743339
 C          2.5838444678       -3.0352896343        0.3697254764
 C          4.7295035199       -1.7320382601        0.2340482932
 C          5.7762501609       -2.6169810611        0.2587849749
 C          6.9847954262       -2.2228492274        0.8354707078
 C          7.1286542139       -0.9497263779        1.3824832565
 C          6.0873549510       -0.0484417743        1.3688218375
 C          4.8697692368       -0.4333518910        0.7894723717
 C         -1.4635691629       -0.0297384921        0.4192597830
 C         -2.6475609355       -0.6993760143        0.3983719120
 H         -2.7075318932       -3.7718128291        1.9794616302
 H         -1.2792030834       -2.7786854658        1.6644779221
 H         -2.2395288374       -3.4033597001        0.3169170573
 H         -3.6850248950       -1.9253927892        3.4546504100
 H         -2.2467955250       -0.9429246878        3.1544271660
 H         -3.8530050316       -0.2920105337        2.8044159203
 H         -5.3367576623       -3.4821221462        2.1548239559
 H         -7.4979992929       -3.6159776369        0.9712093802
 H         -7.9236220354       -2.2511474910       -1.0238349065
 H         -6.1986392280       -0.7099192922       -1.8860768373
 H         -4.1017866217        0.7318815376       -2.3606217882
 H         -1.9805171173        1.9789855627       -2.3001177135
 H          1.7040284943        3.0933687961       -1.9182302693
 H          1.5740093068        5.4748695784       -2.5389592853
 H         -0.3659552778        6.8330944598       -1.8400581754
 H         -2.1743197145        5.7999156953       -0.5133545138
 H         -2.0383962491        3.4225908048        0.1209324646
 H          1.7469321907        3.0558737203        0.8711518657
 H          3.9718657577        2.2200857472        1.5071197308
 H          0.7730781734       -0.7238499979       -0.9370879357
 H          3.9375071288       -1.3802743968       -2.3551049837
 H          3.9303721681       -3.1183341422       -2.0423376557
 H          2.4040964406       -2.2559919975       -2.2669252132
 H          1.5659856648       -3.1050269074       -0.0079712448
 H          2.5471935877       -2.8419167145        1.4398865055
 H          3.0823927802       -3.9881139456        0.2075275396
 H          5.6808269651       -3.6072067605       -0.1638262484
 H          7.8173862225       -2.9100406929        0.8553461009
 H          8.0751021059       -0.6689222661        1.8228018288
 H          6.2017325121        0.9384446286        1.7921102538
 H         -0.7203869820       -0.2061958308        1.1832265709
  68
  -95.3004709086000       0.121083933267608      !
 C         -5.0129690869        0.2077157230        2.2238810539
 C         -4.9592957908        0.1213071515        0.6949688838
 C         -5.5130965189        1.4060275953        0.0690994391
 C         -5.6982755108       -1.0976413976        0.1885529140
 C         -7.0254251657       -1.4157035205        0.3180251460
 C         -7.4933195238       -2.6102320346       -0.2312697578
 C         -6.6267230150       -3.4692197719       -0.9030229372
 C         -5.2907284736       -3.1646226787       -1.0445170088
 C         -4.8102103840       -1.9666792914       -0.4976412569
 C         -3.5098119534       -1.3978308149       -0.4883533298
 C         -2.2883547921       -1.8437868879       -1.0310230501
 C         -1.1631251099       -1.0875780135       -0.8626181050
 C         -1.2030677218        0.1440683325       -0.1618686293
 N         -0.0510589908        0.8850786742        0.0143694791
 C         -0.1244644905        2.2830595849        0.0454022974
 C          0.6731879890        3.0100509634        0.9327455337
 C          0.6010118323        4.3877658162        0.9568442056
 C         -0.2641539045        5.0603773972        0.1057722455
 C         -1.0598245802        4.3417494029       -0.7748247145
 C         -0.9936195007        2.9637826559       -0.8106343598
 C          1.1750686803        0.2664876049        0.1611468390
 C          1.2739820173       -0.9860074887        0.8181549251
 C          2.4770802150       -1.6161508816        0.9639324245
 C          3.6407017535       -1.0175328789        0.4402820014
 C          3.5428541287        0.2445899033       -0.2196375277
 C          2.3482487630        0.8770487436       -0.3572884514
 C          4.9079637619        0.6916953111       -0.6922386559
 C          5.3119885937        2.0126843224       -0.0283188146
 C          4.9506779388        0.8279918338       -2.2178282369
 C          5.7808162454       -0.4496823515       -0.2192887550
 C          7.1353944203       -0.6109245334       -0.3536884406
 C          7.7362739707       -1.7598457736        0.1624707073
 C          6.9731658263       -2.7306500277        0.8073493761
 C          5.6113100826       -2.5846804708        0.9527352730
 C          4.9970132872       -1.4342178858        0.4379511742
 C         -2.4364677952        0.6028306544        0.3725869034
 C         -3.5533781440       -0.1542581752        0.2107682228
 H         -6.0398446384        0.3348544605        2.5584265805
 H         -4.4242074186        1.0518044093        2.5765269865
 H         -4.6148220628       -0.7036255728        2.6650301480
 H         -6.5467832097        1.5572725903        0.3709983489
 H         -4.9271206167        2.2658575946        0.3869476474
 H         -5.4754660148        1.3404600512       -1.0163703423
 H         -7.7085921216       -0.7589502697        0.8379129621
 H         -8.5364170444       -2.8714236723       -0.1336641510
 H         -7.0137455939       -4.3887253931       -1.3190288732
 H         -4.6217394688       -3.8325236938       -1.5664546265
 H         -2.2494839533       -2.7666009792       -1.5893037659
 H         -0.2251006058       -1.3968619151       -1.3003150894
 H          1.3331407032        2.4813579403        1.6045471361
 H          1.2174675237        4.9419331369        1.6487722448
 H         -0.3182289052        6.1379003364        0.1292434642
 H         -1.7304208642        4.8606428847       -1.4433418136
 H         -1.5985438210        2.4013387956       -1.5063962555
 H          0.3770251740       -1.4129468181        1.2428350447
 H          2.5431869419       -2.5554185784        1.4914268776
 H          2.2629530961        1.8191005309       -0.8796119490
 H          4.6316296628        2.8089480535       -0.3230262768
 H          5.2824123851        1.9119205332        1.0546885774
 H          6.3215611729        2.2894519285       -0.3227180950
 H          4.2685506362        1.6085844754       -2.5478433261
 H          4.6597680046       -0.1100305230       -2.6860641896
 H          5.9560787556        1.0818601572       -2.5455647281
 H          7.7392791318        0.1339403750       -0.8526212418
 H          8.8024476295       -1.8974867261        0.0615032110
 H          7.4628568213       -3.6111783898        1.1987960288
 H          5.0225983728       -3.3388568501        1.4532893353
 H         -2.4567788335        1.5307627865        0.9257729032
  68
  -95.2996443822000       5.049417563437731E-002 !
 C         -4.9459680230        0.2133491989        2.1707567007
 C         -4.9028014540        0.0447191930        0.6489196460
 C         -5.6286516802        1.2073278508       -0.0376381282
 C         -5.4878586642       -1.2850422083        0.2245638938
 C         -6.7502709617       -1.7786321199        0.4285554924
 C         -7.0659158557       -3.0523683785       -0.0475006342
 C         -6.1160146966       -3.8131184871       -0.7254925237
 C         -4.8443284542       -3.3318750868       -0.9434750735
 C         -4.5159826484       -2.0550818313       -0.4659358189
 C         -3.3024222962       -1.3247106105       -0.5197914877
 C         -2.0498826502       -1.6422155247       -1.0815052149
 C         -1.0112161045       -0.7726400082       -0.9226161290
 C         -1.1728024554        0.4519085729       -0.2228755576
 N         -0.0598046745        1.2377933354        0.0180911574
 C         -0.1343611329        2.6276496200        0.0043307910
 C          0.7026582012        3.3864129254        0.8277121390
 C          0.6236999900        4.7639332592        0.8134449830
 C         -0.2882895015        5.4069825362       -0.0106311603
 C         -1.1211584999        4.6583487010       -0.8292240323
 C         -1.0471455139        3.2804128045       -0.8293466073
 C          1.1359514398        0.5854304414        0.2733801343
 C          1.1170227056       -0.6140313676        1.0293876607
 C          2.2439787853       -1.3658901550        1.1952104704
 C          3.4394781686       -0.9532444257        0.5767107091
 C          3.4710325455        0.2734412686       -0.1523207241
 C          2.3550563885        1.0391237129       -0.2932241759
 C          4.8544257128        0.4996768483       -0.7221769554
 C          5.4939411641        1.7629063892       -0.1356625648
 C          4.8143855181        0.5828526179       -2.2515610827
 C          5.5821749591       -0.7438989997       -0.2591416835
 C          6.8778195050       -1.1254505557       -0.4952729269
 C          7.3332885877       -2.3375680902        0.0251770714
 C          6.4889138758       -3.1490886108        0.7787278590
 C          5.1856173917       -2.7796594664        1.0290367760
 C          4.7175820689       -1.5665683425        0.5070056357
 C         -2.4498421426        0.8022472914        0.2901007500
 C         -3.4797671517       -0.0743952144        0.1483862500
 H         -5.9757050896        0.2234413824        2.5200090603
 H         -4.4701785240        1.1469344886        2.4630432112
 H         -4.4241794535       -0.6100474888        2.6539682920
 H         -5.1589029200        2.1539261350        0.2211316140
 H         -5.5938051516        1.0843170113       -1.1181894532
 H         -6.6701794118        1.2371694675        0.2737297085
 H         -7.4975947726       -1.2015943101        0.9546633178
 H         -8.0550916880       -3.4537117282        0.1142014385
 H         -6.3852197270       -4.7973405209       -1.0821203593
 H         -4.1082385856       -3.9229560466       -1.4677137208
 H         -1.9201202345       -2.5598228324       -1.6341913328
 H         -0.0453315269       -0.9859033765       -1.3570696528
 H          1.3960193425        2.8822278293        1.4844554739
 H          1.2706930438        5.3416218359        1.4566555126
 H         -0.3494815356        6.4844511468       -0.0149113339
 H         -1.8276517874        5.1541397403       -1.4781795485
 H         -1.6787005132        2.6962620731       -1.4820964750
 H          0.1877908417       -0.9047420060        1.4978084085
 H          2.2231259685       -2.2652313893        1.7910827038
 H          2.3585815592        1.9538562677       -0.8687908702
 H          4.9206813870        2.6439182200       -0.4164530415
 H          5.5244379959        1.6977971892        0.9500229233
 H          6.5108282168        1.8755179204       -0.5043621576
 H          4.2424232449        1.4516449359       -2.5699733618
 H          4.3493209080       -0.3104675239       -2.6632149963
 H          5.8222393866        0.6640297810       -2.6515729439
 H          7.5443676807       -0.5076554257       -1.0803315303
 H          8.3497032559       -2.6509750093       -0.1605260952
 H          6.8658181535       -4.0833435541        1.1704738542
 H          4.5314153546       -3.4104422538        1.6122946395
 H         -2.5639005066        1.7344672901        0.8247640536
