  68
        -95.78782330
 C         -1.9975975623       -3.0181225899        0.5523500948
 C         -2.9368341113       -1.8948196967        1.0038903838
 C         -2.9731288283       -1.8150040321        2.5338000374
 C         -4.3261961672       -2.0740043016        0.4336225057
 C         -5.2065688366       -3.1083444198        0.6188233553
 C         -6.4518739111       -3.0596701535       -0.0090057443
 C         -6.7989034554       -1.9762995730       -0.8128307555
 C         -5.9266770276       -0.9286256185       -1.0106598274
 C         -4.6718966741       -0.9682687439       -0.3868120546
 C         -3.5851048433       -0.0557801229       -0.4116074224
 C         -3.4172136766        1.1846849867       -1.0609726795
 C         -2.2469105522        1.8717519248       -0.9037193655
 C         -1.1940510234        1.3576224320       -0.1064603599
 N          0.0016570541        2.0411392356        0.0017454227
 C          0.0074561568        3.4405490638       -0.0018230617
 C          1.0212639821        4.1387995266       -0.6617679836
 C          1.0241008433        5.5187570287       -0.6591412195
 C          0.0222681476        6.2212277225       -0.0055789462
 C         -0.9873084427        5.5311305885        0.6492676827
 C         -0.9993503706        4.1511895481        0.6554802057
 C          1.1927639104        1.3502295179        0.1131953074
 C          2.2488321758        1.8626500350        0.9076129547
 C          3.4176238459        1.1730368862        1.0631704301
 C          3.5810179009       -0.0686080601        0.4146157867
 C          2.5201362995       -0.5843106242       -0.3877508912
 C          1.3537656652        0.0965484906       -0.5371418727
 C          2.9229385498       -1.9111350539       -0.9917896406
 C          2.9437373078       -1.8399526379       -2.5223434018
 C          1.9892355269       -3.0328541627       -0.5247262292
 C          4.3176540346       -2.0870988589       -0.4335729118
 C          5.1991481121       -3.1190227606       -0.6265182014
 C          6.4503713721       -3.0663701765       -0.0107427559
 C          6.8019142988       -1.9817792286        0.7895566209
 C          5.9286899666       -0.9365357204        0.9952142663
 C          4.6682457057       -0.9798450486        0.3828877401
 C         -1.3614995694        0.1075261595        0.5487288452
 C         -2.5291979344       -0.5706901114        0.3974565911
 H         -2.3400823795       -3.9751560720        0.9386081815
 H         -0.9884949456       -2.8366900431        0.9157413873
 H         -1.9743714197       -3.0729662301       -0.5342487372
 H         -3.3343765074       -2.7517898701        2.9515260061
 H         -1.9777692498       -1.6187963658        2.9262413042
 H         -3.6377002431       -1.0144389949        2.8520207110
 H         -4.9505388786       -3.9540508974        1.2412896576
 H         -7.1531525541       -3.8687892466        0.1301471259
 H         -7.7694235993       -1.9628311433       -1.2884647823
 H         -6.1985020912       -0.0910977293       -1.6358079891
 H         -4.2033659553        1.5777228259       -1.6872345147
 H         -2.0914722528        2.8088173936       -1.4191512003
 H          1.7897710947        3.5873399685       -1.1829188299
 H          1.8080273676        6.0512110344       -1.1764992345
 H          0.0283778893        7.3003327272       -0.0064512230
 H         -1.7654672510        6.0733264031        1.1651832455
 H         -1.7737278912        3.6093011145        1.1779987564
 H          2.0970590808        2.8011720789        1.4215111368
 H          4.2068438368        1.5655124863        1.6859771667
 H          0.5578673355       -0.2705936295       -1.1683067502
 H          3.6040509749       -1.0404218044       -2.8517747186
 H          3.3021270922       -2.7786523044       -2.9382463537
 H          1.9442635749       -1.6474300968       -2.9061194174
 H          0.9763997166       -2.8540135674       -0.8788697470
 H          1.9769301226       -3.0819216276        0.5623506033
 H          2.3286285580       -3.9916471254       -0.9093803164
 H          4.9399370165       -3.9656427688       -1.2464668893
 H          7.1531246433       -3.8728629302       -0.1572988071
 H          7.7773061815       -1.9648576157        1.2551056668
 H          6.2038007396       -0.0979791537        1.6176209335
 H         -0.5692354328       -0.2591299719        1.1847288423
