94
 energy: -142.761435671992 gnorm: 0.000058651183 xtb: 6.7.1 (edcfbbe)
O           -3.85195620411489        1.80312799002807        2.88370879439904
C           -2.60367678298273        1.63441045591911        2.36455825763752
C           -1.49761501147977        2.28185359047217        2.90088902099650
C           -0.23229043009260        2.05389624446101        2.39966876079548
C           -0.02909973052948        1.16167734943969        1.34472438166907
C            1.31153086871100        0.90399792037017        0.82115422269803
C            2.42640177777501        0.86841604839343        1.66967166578209
C            3.68318764923703        0.61662998696201        1.18392856657297
C            3.91468231127292        0.41892559568234       -0.19744298031592
C            5.21901692421163        0.13661494446080       -0.68107239258795
C            6.22252897264023       -0.40487397929586        0.25408155980415
C            7.44181681035835        0.32305048464085        0.41966472245178
C            7.48277437021383        1.71000786546352        0.16694087397293
C            8.65532373901598        2.42047319491887        0.28386797535691
C            9.83553617619732        1.77858912523654        0.63816341210915
C            9.82439390638076        0.40864444164217        0.86541127637694
C            8.65417669352203       -0.31021080905601        0.76239540103466
C            5.93200200405016       -1.62907524299148        0.92830590272187
C            4.98478936835354       -2.53110023979152        0.39807645092260
C            4.67116893958624       -3.70004760291471        1.05233434407953
C            5.27180445741442       -4.01178085803454        2.26596194001814
C            6.18553577880247       -3.12527817565887        2.82152844993290
C            6.51384729123063       -1.95688747291570        2.17145747327739
C            5.62863984550581        0.35155930354118       -2.03874608910034
C            6.67446515862295       -0.40961552504309       -2.59610487988271
C            7.10674767867342       -0.18854842938598       -3.88428091489281
C            6.52969038260664        0.80961990628688       -4.65877190043854
C            5.51609724243296        1.59009570422613       -4.11964643560202
C            5.06819503246591        1.36862395451806       -2.83571409660221
C            2.78159868765010        0.44471903406924       -1.04332461701208
C            1.52436659873839        0.66927933974112       -0.54339285925124
C           -1.14549301024901        0.52691867135488        0.80305202561564
C           -2.42690816014743        0.76106280062498        1.28231354524229
C           -3.54698139042423        0.04809504996312        0.67795700477061
N           -3.53842531289522       -1.23532948303693        0.42175065502595
C           -4.75385291511846       -1.53772201042015       -0.12210969226711
C           -5.05640326747980       -2.89534204123358       -0.55209892098466
C           -5.95978918370755       -3.16085300423414       -1.58018167561017
C           -6.22353853293487       -4.46410030050738       -1.95859855868924
C           -5.58579646436776       -5.51986098605846       -1.32730344574981
C           -4.66990707784587       -5.26385726358045       -0.31922520527943
C           -4.40455415236084       -3.96340164891557        0.06432878420351
C           -5.52374207994496       -0.38938677112993       -0.19201664988293
C           -6.88059457589384       -0.16879108113217       -0.67888201968650
C           -7.15731605027213        0.84264672964656       -1.59723532594772
C           -8.44934993585101        1.04267446408010       -2.04764870432105
C           -9.48016735102476        0.23897332851599       -1.58966179300694
C           -9.21274818944469       -0.77203099871001       -0.67991227054650
C           -7.92370901574769       -0.97575794594595       -0.22535710460182
N           -4.73429201806698        0.62122846446913        0.31343771830478
C           -5.07935535773234        1.98086392906831        0.41253211819474
C           -4.21356275274298        2.94700802531427       -0.08784440133694
C           -4.54939372698065        4.28566364127651        0.00788330924131
C           -5.74737607495136        4.66410327190969        0.59084532126706
C           -6.61003434931830        3.69921433965607        1.08530510373303
C           -6.28027639101743        2.35913088459572        1.00189717006920
H           -3.81069322562722        2.41281994061302        3.63284910497488
H           -1.63697106324749        2.96703728405511        3.72666651179289
H            0.60622801287886        2.58579069863226        2.82251147905639
H            2.28837822456918        1.01366109155970        2.73127786534990
H            4.52499100701604        0.59288038762406        1.86046908223731
H            6.56723331189024        2.21917982307857       -0.09682865324043
H            8.65763828638800        3.48540053781077        0.09851000789955
H           10.75546731110185        2.33758554036008        0.72429662182937
H           10.74393913605594       -0.10154152029284        1.11627974669595
H            8.67125328139251       -1.38226716490815        0.89214492146307
H            4.52260648413946       -2.30504853083084       -0.55182823721508
H            3.95176037406629       -4.37993582729075        0.61817489214658
H            5.02144229797462       -4.92873764086964        2.77842252330109
H            6.63687729049621       -3.34868219927887        3.77814103151709
H            7.18712017567359       -1.25480942166375        2.64062160907400
H            7.12102797602624       -1.19601311506259       -2.00492961411237
H            7.90119335992528       -0.79599263488640       -4.29437310181170
H            6.87389864808000        0.98432994403508       -5.66736227738600
H            5.07942666598000        2.38521094240147       -4.70773504668707
H            4.31308429124865        2.01504594914839       -2.41344077502200
H            2.90486167567162        0.23093659289543       -2.09460768286811
H            0.68156776675556        0.67985681638147       -1.21946333389615
H           -1.03325724304902       -0.18916912970596        0.00358696122489
H           -6.44824242523348       -2.34367508505322       -2.09020431007376
H           -6.92777568207167       -4.65630390678754       -2.75570925946195
H           -5.79673727122330       -6.53695262791162       -1.62466555651210
H           -4.16150987101829       -6.08256501095282        0.17008850597181
H           -3.69054480587081       -3.74934107837453        0.84538131998461
H           -6.35456871135113        1.46468481179586       -1.96738833750312
H           -8.65039134480426        1.82844101222705       -2.76131191240209
H          -10.48858677354093        0.39740360292326       -1.94231105456261
H          -10.01275656834020       -1.40268402835575       -0.32025253427019
H           -7.71158081777083       -1.76185626476509        0.48520869960467
H           -3.28409774220106        2.64506984808228       -0.54867789107804
H           -3.87316244300186        5.03289792600911       -0.38006891258115
H           -6.00819479910150        5.70943163300026        0.65995137686016
H           -7.54340730081308        3.98968559007781        1.54386039252241
H           -6.94093873883738        1.60387842951050        1.39948194589777
