94
 energy: -142.828833469883 gnorm: 0.000060293908 xtb: 6.7.1 (edcfbbe)
O           -4.04254180763186        2.04398912258681        2.81967342289305
C           -2.77171372955953        1.84554469326059        2.36893585747882
C           -1.68586915838173        2.49384165075122        2.94238412967253
C           -0.40024244259869        2.23911080647673        2.50637679752302
C           -0.16411449218763        1.32506441164614        1.48200521187174
C            1.20181326119233        1.04155240477405        1.01840349709346
C            2.24741473611524        0.88750491814026        1.92710124757844
C            3.52620941092796        0.60504238387800        1.49276441296721
C            3.80488280476446        0.48100031518389        0.13267358280115
C            5.17155212008528        0.20730509564451       -0.34285573274250
C            5.94066305776415       -0.76843402214709        0.18918568043329
C            7.36799267602662       -0.92062521383518       -0.14429979641072
C            8.22934050275880        0.17508490600544       -0.13387671276751
C            9.57175491017233        0.01526867365288       -0.42147133897511
C           10.07627932936215       -1.23898049226759       -0.72528074320299
C            9.23088114767034       -2.33648872483047       -0.72782731675177
C            7.88934624738869       -2.18084985260962       -0.43229664021226
C            5.41258016657408       -1.75724601107681        1.14553333269312
C            4.19979790861713       -2.40474335822765        0.91561107446560
C            3.72605293878179       -3.34702117441549        1.80894026095325
C            4.45481626709622       -3.66018628232287        2.94512165661123
C            5.66794806199341       -3.03256857364608        3.17659910400036
C            6.14706653947340       -2.09427688940586        2.28142009157098
C            5.63748082001390        1.07586742959693       -1.43811576779376
C            6.26983555076839        0.54364094758057       -2.56027992590353
C            6.68402312702426        1.36780608297242       -3.58961885395053
C            6.47274720992220        2.73534781779371       -3.51730225585327
C            5.83274709800014        3.27312208575409       -2.41261315876758
C            5.41141928142819        2.45033253291580       -1.38464816663735
C            2.76546382281983        0.66356329275788       -0.77807296163511
C            1.48286352792548        0.92589097824217       -0.34168937884203
C           -1.25547240758229        0.68534962606333        0.90426611927429
C           -2.55539475571788        0.94010412661434        1.32157652073228
C           -3.65707193345684        0.21430181195269        0.69844652326106
N           -3.66174291822801       -1.08106988258912        0.51397032160157
C           -4.85986992839256       -1.39333109654039       -0.06240811271263
C           -5.16820451811103       -2.76834213893783       -0.42830519830993
C           -6.03547627019803       -3.07894751830723       -1.47468869023395
C           -6.30479053903893       -4.39780705936641       -1.78996731057791
C           -5.70821119956319       -5.42501157391967       -1.07660282279233
C           -4.82757739410217       -5.12528086366496       -0.04933145002461
C           -4.55725151920174       -3.80898513896805        0.27153558007594
C           -5.60510878150055       -0.23828240964279       -0.22651396427166
C           -6.93768479261482       -0.02517686638209       -0.77896422984016
C           -7.16344205468947        0.94111015841980       -1.75786014097975
C           -8.43355886899085        1.13267258601905       -2.27015664684329
C           -9.49299970063053        0.36578673519705       -1.81429133702395
C           -9.27618609417149       -0.60023886667154       -0.84420514765739
C           -8.00938740181790       -0.79515297957229       -0.32764080260750
N           -4.81763207680941        0.78594414119253        0.25443686393239
C           -5.13580210495142        2.15536533711397        0.26685758467929
C           -4.22090668773563        3.07600806982270       -0.23229968808536
C           -4.52785934527106        4.42483893171780       -0.22076636263741
C           -5.74635681248916        4.85849863581476        0.27473383154693
C           -6.65768157064120        3.93898642232775        0.76838838170676
C           -6.35653710088371        2.58959422132196        0.77077011551596
H           -4.03060311745727        2.67490957409423        3.55201577598954
H           -1.85541158198049        3.19805817142361        3.74615014640234
H            0.42741225979853        2.76335442712611        2.95968590646457
H            2.04893748941212        0.96807011830872        2.98596971431869
H            4.32463770551416        0.48647617923441        2.21071222448382
H            7.84178396121061        1.15286594883741        0.11272203141719
H           10.22868000205029        0.87328249964206       -0.40627539308528
H           11.12514623297832       -1.36160926735266       -0.95340315296987
H            9.61930049010913       -3.31820957207573       -0.95912747042105
H            7.23091333998834       -3.03847538519091       -0.43550370873916
H            3.63380732458018       -2.17374351846002        0.02500525535172
H            2.78429127492867       -3.84088195682839        1.61655037029737
H            4.08135088643883       -4.39456079853475        3.64403453168594
H            6.24429784542373       -3.27670938852091        4.05773487678506
H            7.09355853326956       -1.60514450480364        2.46537525480960
H            6.42564875879003       -0.52327684732331       -2.62615133423444
H            7.17118656228419        0.94087294778613       -4.45467257024221
H            6.80006307312201        3.37836262684434       -4.32145306906910
H            5.66007607621954        4.33836513286736       -2.35268393199508
H            4.91453403476970        2.87213266315103       -0.52198758218159
H            2.96837127305847        0.58329245499799       -1.83704085454908
H            0.68966140725626        1.06166177703756       -1.06271110533895
H           -1.10817702554077       -0.04505916393940        0.12313461634810
H           -6.49117101466964       -2.28522920871937       -2.04816403720147
H           -6.98116220400896       -4.62526174029130       -2.60178283152240
H           -5.92298370678220       -6.45428303248315       -1.32551966794764
H           -4.35084455143350       -5.92207221548128        0.50391014503870
H           -3.87003558236110       -3.56062556659227        1.06632314126745
H           -6.33817754227772        1.53406903600092       -2.12619225783382
H           -8.59506953372673        1.88295491719087       -3.03049129131042
H          -10.48410178492259        0.51747793111939       -2.21564125403004
H          -10.09834578253489       -1.20244596646469       -0.48579334179974
H           -7.83653552807278       -1.54578056526733        0.43030969305992
H           -3.27626947633310        2.73089483959789       -0.62714851061687
H           -3.81314036600463        5.13618463025278       -0.60715717818312
H           -5.98498199532475        5.91138348073157        0.27679598160132
H           -7.60709616104348        4.27260931229277        1.15958728433330
H           -7.05583369428267        1.87069666606013        1.16942504559504
