94
 energy: -142.828836760798 gnorm: 0.000034174339 xtb: 6.7.1 (edcfbbe)
O           -4.00550879688141        1.80787891931392        2.78753273296831
C           -2.73076717105302        1.67224388672295        2.32510647913656
C           -1.67430273209070        2.37925746719469        2.88388145314742
C           -0.38142328747761        2.18857549051416        2.43737303349521
C           -0.10468980214252        1.27340743947600        1.42339387136081
C            1.27091866722248        1.05202474909556        0.95613573944862
C            2.33755452570924        1.03217602289972        1.85406115974667
C            3.62795211468904        0.81420830797998        1.41782547950966
C            3.89892145630244        0.61230560580478        0.06515408031364
C            5.27333222022314        0.40523798188769       -0.41822831356439
C            6.14074704244025       -0.43373380932730        0.19133412221674
C            7.56680389822238       -0.49762058788525       -0.17340596276160
C            8.32323927352836        0.66303501963268       -0.32639456803064
C            9.66632959971339        0.58884125842800       -0.64377887650557
C           10.27703462658054       -0.64337793752695       -0.81312340716903
C            9.53713597680419       -1.80352796098570       -0.65209442606529
C            8.19519757279814       -1.73237244337348       -0.32754476177180
C            5.72982773885573       -1.35507970700062        1.26550023396558
C            4.58637304624431       -2.14203622069650        1.13901499160630
C            4.22613299047229       -3.02322559013773        2.14105428876752
C            5.00105336079641       -3.13462961851134        3.28442019523387
C            6.14561807761749       -2.36518361724928        3.41543121216195
C            6.51188893717285       -1.48765751830913        2.41183240322069
C            5.63511747395036        1.17645886718742       -1.62110565198742
C            6.27666969679167        0.56810060430400       -2.69837956458149
C            6.58802048500916        1.29514921886375       -3.83189876423457
C            6.26480891021251        2.64039232895956       -3.90915786020545
C            5.61576593461599        3.25189089793570       -2.84894215035854
C            5.29640608887232        2.52511543114715       -1.71701281020546
C            2.83606391289908        0.65505931364412       -0.83641980306450
C            1.54434412578706        0.86122376030408       -0.39744469304127
C           -1.16824034925784        0.57567003403338        0.86003420376739
C           -2.47735787924826        0.77432763114390        1.27955794939369
C           -3.54646949386088        0.00653202178085        0.65063127928697
N           -3.48998177651622       -1.28351498022646        0.43846880412850
C           -4.67100026748252       -1.63945196649452       -0.14766050615109
C           -4.91367340901284       -3.01823548959637       -0.54718968103636
C           -5.76417691514453       -3.34281782769915       -1.60308911954165
C           -5.97204765855790       -4.66446550762438       -1.95123189813894
C           -5.32942051029171       -5.68019430070215       -1.26186254224726
C           -4.46449561851103       -5.36535757683930       -0.22580386784945
C           -4.25556376202213       -4.04629382570432        0.12793065294372
C           -5.46957388610657       -0.51757081491395       -0.28911166515701
C           -6.80880718598804       -0.35372303062903       -0.84268517355085
C           -7.07243901674429        0.61897771961965       -1.80564467089328
C           -8.34749762892514        0.76424192722326       -2.32078934543506
C           -9.37436335693350       -0.05587647420189       -1.88346430143113
C           -9.11977759458340       -1.02835171183583       -0.92912066386371
C           -7.84780753501986       -1.17717933888003       -0.40978390074662
N           -4.73221753515504        0.53207097409749        0.21557131589479
C           -5.11800352213954        1.88373282618354        0.25323281478190
C           -4.25353558141250        2.85826696763591       -0.23325252397582
C           -4.62889021043397        4.18927678951648       -0.19672536135780
C           -5.86551557420987        4.55152658164425        0.31106018153322
C           -6.72680731629342        3.57833276360974        0.79141432914397
C           -6.35725027916189        2.24625667553587        0.76857398727646
H           -4.01808727366207        2.43946072769147        3.51930293989538
H           -1.87295763171224        3.08107078829360        3.68307966640071
H            0.41973377882133        2.76418056541410        2.87550881802301
H            2.14983827594480        1.16921341474968        2.90895033891791
H            4.44079816153833        0.80743908782885        2.12903812579810
H            7.85407925130501        1.62554860284932       -0.18351252916661
H           10.24102439963746        1.49711472783367       -0.75637449389936
H           11.32634322520818       -0.69905757147902       -1.06419699251832
H           10.00849289470059       -2.76801056870040       -0.77766616015970
H            7.61910882477877       -2.63892995826995       -0.20380669922345
H            3.98563096499115       -2.06742986650775        0.24429235866987
H            3.33756360994852       -3.62778651967239        2.02813359829205
H            4.71648600649611       -3.82194069913025        4.06792118000072
H            6.75664418870645       -2.45085709611064        4.30279200096725
H            7.40468012219983       -0.88682207397197        2.51676681086775
H            6.52014440634274       -0.48312017759341       -2.64676849939430
H            7.08344525208751        0.80930240635871       -4.66039699726214
H            6.51220521370575        3.20807228326031       -4.79447889110754
H            5.35545945675339        4.29933502038914       -2.90568076640577
H            4.78981675854437        3.00424117116613       -0.89069106609720
H            3.02917990698753        0.51192788312450       -1.89050471852776
H            0.73700969811671        0.89463042224917       -1.11455579000531
H           -0.99315658257152       -0.15612572716896        0.08616688794377
H           -6.25539478975007       -2.55717859131907       -2.15802959371203
H           -6.63629752835918       -4.90276162423380       -2.76991299574354
H           -5.49673072643612       -6.71186868112069       -1.53590601652487
H           -3.95206610597258       -6.15273669403987        0.30868249712518
H           -3.58173049320002       -3.78630505354944        0.93040368543588
H           -6.27209679731791        1.25335193862004       -2.15968865143354
H           -8.53826994158570        1.51999244939932       -3.06884695668845
H          -10.36943987900464        0.05964434766054       -2.28702960958090
H           -9.91668600177630       -1.67157421614973       -0.58518872651670
H           -7.64575091560316       -1.93299682145464        0.33571282018538
H           -3.29408696526715        2.56890541780469       -0.63713620459868
H           -3.95332195966227        4.94298444084054       -0.57309040176049
H           -6.15703539160444        5.59076597168714        0.33311169760781
H           -7.69027958835473        3.85611997717137        1.19183641836725
H           -7.01723427120951        1.48555374532660        1.15661399446871
