  103
       -157.80179662
 C          6.5331471507       -1.8820854678        2.6530960593
 C          5.7958520628       -2.2359083172        1.3487824347
 C          6.3672551208       -3.5330009701        0.7474061267
 C          4.3276110727       -2.4554420828        1.6626779115
 C          3.9619797107       -3.4499512174        2.5596767396
 C          2.6404891209       -3.7042326371        2.8771978931
 C          1.6444108020       -2.9551377523        2.2780007969
 C          1.9792476118       -1.9658183795        1.3771562606
 C          3.3154312677       -1.6954907209        1.0677985162
 N          3.6258701115       -0.6833300017        0.1704636202
 C          2.5653468894        0.0118879844       -0.4613510849
 C          1.9161837446        1.0448896701        0.2043772138
 C          0.8285278934        1.6809635890       -0.3840705770
 N          0.1035142216        2.6714893039        0.3247460515
 C         -1.0768731311        2.2977559834        0.9484161310
 C         -1.4511153020        0.9504619204        0.9781052093
 C         -2.6078005208        0.5492318976        1.6122253050
 C         -3.4253943816        1.4891880484        2.2136215360
 C         -3.0558085680        2.8214650243        2.1872787299
 C         -1.8856173604        3.2510979270        1.5761917715
 C         -1.5184703412        4.7230031805        1.6153018103
 C         -1.4075120958        5.1618581745        3.0868364382
 C         -2.6203487867        5.5263609646        0.9007984746
 C         -0.1956918711        4.9977539657        0.9245553780
 C          0.3009111047        6.2935826104        0.8818681969
 C          1.4930292383        6.6017821157        0.2531414173
 C          2.2156022000        5.5954626169       -0.3620507788
 C          1.7446305958        4.2997245296       -0.3362975605
 C          0.5462932891        3.9862159138        0.3089337822
 C          0.3991328183        1.2891098412       -1.6457957824
 C          1.0496395318        0.2572605215       -2.2922674087
 S          0.2267330856       -0.4485815461       -3.7336172407
 O          1.0020254547       -1.5636219085       -4.2048853246
 O         -0.1206930805        0.5886095664       -4.6664091595
 C         -1.2370377594       -0.9987547941       -2.8632737091
 C         -2.4384998034       -0.3244669173       -3.0429467531
 C         -3.5234812065       -0.5916821467       -2.2316602470
 C         -3.3606374142       -1.5323885542       -1.2209624231
 C         -2.1397526493       -2.2387238977       -1.0595536760
 C         -1.0652123493       -1.9597647680       -1.8891680563
 C         -2.3277095598       -3.1319361404        0.0472777391
 C         -1.4997305410       -4.0462110764        0.6861604937
 C         -1.9975738339       -4.7341221034        1.7743612317
 C         -3.2951771889       -4.5114086824        2.2320057266
 C         -4.1372473455       -3.6094617020        1.6100492538
 C         -3.6505396091       -2.9296808377        0.5024322017
 N         -4.2606924792       -1.9653050819       -0.2784666776
 C         -5.5682316428       -1.4798118389       -0.1026031510
 C         -6.6356300511       -2.3686824511       -0.0316679156
 C         -7.9191470320       -1.8887866341        0.1546085738
 C         -8.1461591490       -0.5267914249        0.2622950763
 C         -7.0831339178        0.3578947427        0.1861951305
 C         -5.7948240426       -0.1116825151        0.0075332137
 C          2.1235579719       -0.3890211324       -1.7194029460
 C          4.9335986030       -0.3919457102       -0.1895523385
 C          5.1823933861        0.6483251694       -1.0880654651
 C          6.4710796632        0.9681295902       -1.4601697246
 C          7.5346708982        0.2562746507       -0.9356511610
 C          7.2894083821       -0.7661691279       -0.0379296792
 C          6.0024920030       -1.1093102083        0.3539690438
 H          6.4162243706       -2.6700493711        3.3918560075
 H          7.5950397062       -1.7410308625        2.4727638536
 H          6.1298345434       -0.9601179435        3.0677004485
 H          6.2599765438       -4.3630291946        1.4401440640
 H          5.8367682135       -3.7804804924       -0.1700373989
 H          7.4218894054       -3.4195723216        0.5128679098
 H          4.7281083620       -4.0487357947        3.0283867117
 H          2.3927464787       -4.4823916432        3.5827701193
 H          0.6048125335       -3.1361065605        2.5072994573
 H          1.1921831093       -1.3954021432        0.9077650903
 H          2.2378739769        1.3332156453        1.1941782773
 H         -0.8269658795        0.2070823572        0.5059251556
 H         -2.8615227276       -0.4995560085        1.6439952902
 H         -4.3382407854        1.1876868526        2.7048169866
 H         -3.7001110145        3.5434780078        2.6656845168
 H         -2.3428068639        4.9972094185        3.6143857171
 H         -0.6271206973        4.5898578076        3.5850783922
 H         -1.1586767916        6.2166998880        3.1593717581
 H         -2.4008318648        6.5901605878        0.9249967355
 H         -3.5856529342        5.3666451927        1.3736308426
 H         -2.6903662917        5.2144652792       -0.1396917899
 H         -0.2560264894        7.0915993001        1.3490919432
 H          1.8503727370        7.6199535099        0.2399302183
 H          3.1449010761        5.8163525380       -0.8649560869
 H          2.3063900675        3.5184855448       -0.8250715447
 H         -0.4529463627        1.7599300879       -2.1104627948
 H         -2.4947503007        0.4082635540       -3.8323851091
 H         -4.4639375425       -0.0833895866       -2.3761108460
 H         -0.1182187873       -2.4663191904       -1.7889731366
 H         -0.4910072909       -4.2064378592        0.3376357549
 H         -1.3734944670       -5.4510738996        2.2863092510
 H         -3.6503621358       -5.0545058888        3.0950719761
 H         -5.1349295502       -3.4323424591        1.9818835322
 H         -6.4550949618       -3.4282043373       -0.1353803300
 H         -8.7456408142       -2.5813914973        0.2094134615
 H         -9.1496148755       -0.1560570080        0.4060767272
 H         -7.2552062772        1.4201693422        0.2743951657
 H         -4.9599751315        0.5721191509       -0.0272813477
 H          2.5919820405       -1.2078574797       -2.2430795190
 H          4.3552130955        1.2081563904       -1.4975794134
 H          6.6414018129        1.7736335528       -2.1584499169
 H          8.5478874311        0.4956120631       -1.2198332264
 H          8.1301992960       -1.3096270829        0.3658139062
