84
 energy: -126.543414822966 gnorm: 0.000150469160 xtb: 6.7.1 (edcfbbe)
C            9.78681489993855       -0.40338496020240        1.42042133799134
C            9.01529159165688       -0.08866199351118        0.12521643669300
C            9.99895356194614        0.19793205777682       -1.02457066081870
C            8.17514845989281       -1.29549201051816       -0.24186860500853
C            8.79414847070921       -2.51336506726446       -0.48746391016754
C            8.07542405053072       -3.64828216989175       -0.81458514634776
C            6.69485832389361       -3.57888289349409       -0.89477479488501
C            6.05331644925749       -2.38326834281613       -0.65688652979311
C            6.77923117940848       -1.22965368455528       -0.33744940955736
N            6.10777851155142       -0.04185381831444       -0.11574504793946
C            4.68866701125715       -0.02494860030075       -0.21241259046319
C            4.06611065972394        0.09919881979339       -1.45143118060908
C            2.69305665622416        0.10577523917256       -1.53143397588331
C            1.90265412594000        0.00081771433054       -0.37627220430471
C            0.44329044264353        0.00652933554137       -0.58803822497052
O            0.00390101325583        0.01007084245278       -1.75410703927577
C           -0.44283107813673        0.02501349198453        0.58519068909535
O           -0.00255220552191        0.06150200601398        1.75036830184580
C           -1.90222447327391        0.01596116877910        0.37427362994987
C           -2.54031830586786       -0.12330496149903       -0.85643758858024
C           -3.91768745599548       -0.14129131516747       -0.93782666099593
C           -4.68845764118978       -0.01450758536868        0.21282830988493
N           -6.10753020158987       -0.03636093394860        0.11732230806895
C           -6.77397272503957        1.12151064169774       -0.23810186545674
C           -6.04583582965670        2.29761499433875       -0.45297727251092
C           -6.68074066255831        3.46612503075931       -0.81224997223852
C           -8.05732256513846        3.48512024728869       -0.96074081229558
C           -8.78023582611666        2.32803696130655       -0.73703719530887
C           -8.16795754949707        1.13649893569064       -0.37346797875543
C           -9.01453975365891       -0.09628262383582       -0.12733646870916
C           -9.78250522501656       -0.43457949769123       -1.41873144548364
C          -10.00134992688947        0.20542627719626        1.01584098398819
C           -8.17118623129816       -1.29437496365913        0.26038208406550
C           -8.78679541099035       -2.51016737779551        0.52413386931762
C           -8.06499869185203       -3.63773599242202        0.86938657453098
C           -6.68473600200140       -3.56292472564048        0.94979119353968
C           -6.04656388419225       -2.36912661524023        0.69434257419714
C           -6.77560227873656       -1.22274085860886        0.35654695327637
C           -4.06508338706829        0.12701781005723        1.44958886127997
C           -2.69199247843760        0.13630137377538        1.52843049521903
C            2.53985288976516       -0.12269361726178        0.85657791993237
C            3.91722323030795       -0.13826558306956        0.93916177759489
C            6.77106052283146        1.12373779309475        0.21977913878656
C            6.03953777605771        2.30088254368890        0.41672457541105
C            6.67134861103023        3.47711644308368        0.75565930508667
C            8.04808875726950        3.50282639224748        0.90165670794404
C            8.77428262404648        2.34444103090942        0.69600718218981
C            8.16519335930120        1.14525298327156        0.35284701161283
H            9.08655029629350       -0.60248283772661        2.22945110723380
H           10.41962925113866       -1.27698870971445        1.29198262219542
H           10.41625202162901        0.43344498399884        1.70963681658378
H           10.63694791945145       -0.66102056457072       -1.21230587961854
H           10.63318178480373        1.04792691427853       -0.78926411714755
H            9.44784168753979        0.42244574658915       -1.93585424221629
H            9.86916894596155       -2.58542035931441       -0.42193133391394
H            8.58903282915252       -4.57900292862173       -1.00060119179835
H            6.11608067905491       -4.45606286568518       -1.14129479085400
H            4.97721389287690       -2.33455916321284       -0.71427585517570
H            4.67017436547111        0.18661060486956       -2.34249298264114
H            2.19150998266674        0.19612029331228       -2.48343631009033
H           -1.94865561523005       -0.21686668594960       -1.75457577292817
H           -4.40789413979129       -0.25207486777017       -1.89396280016737
H           -4.97364422529906        2.28716310084582       -0.33440609429188
H           -6.10020420957498        4.36138597402537       -0.97545124736114
H           -8.56533185634809        4.39397436688176       -1.24456154915504
H           -9.85321277745907        2.36078246787536       -0.85023060800479
H           -9.07998455623944       -0.64944447308508       -2.22175556546747
H          -10.41646423514129       -1.30509931981168       -1.27577394290556
H          -10.41031334483581        0.39717931685859       -1.72555056076048
H           -9.45280441830320        0.44277423140562        1.92541536298734
H          -10.63929170854349       -0.65131437406047        1.21363231924730
H          -10.63553093143130        1.05166105454355        0.76727090196563
H           -9.86150368268489       -2.58646542659652        0.45850489488591
H           -8.57596545536839       -4.56707588748116        1.06906659372316
H           -6.10352282678855       -4.43449452718393        1.21009145523998
H           -4.97067039580756       -2.31641177274709        0.75193504208055
H           -4.66854265190361        0.22536926395988        2.33992132652893
H           -2.18971702644031        0.24012321610519        2.47868500388790
H            1.94781826402827       -0.20515705241133        1.75550035801818
H            4.40681232175814       -0.23662082131967        1.89697080228753
H            4.96717949298031        2.28511649635597        0.30029786256809
H            6.08825359099016        4.37313872770494        0.90497280207848
H            8.55367611266885        4.41783257453803        1.16958881270430
H            9.84729944142935        2.38230707269645        0.80710404596195
