84
 energy: -126.590782898540 gnorm: 0.000029373089 xtb: 6.7.1 (edcfbbe)
C            3.52388140834350       -3.77890244980268       -0.87505418889721
C            3.75582767397989       -2.83533244640615        0.31860976083850
C            4.51310656778280       -3.57072048122181        1.43965103913452
C            4.59978732294218       -1.66428230860392       -0.14567667345992
C            5.86358486564677       -1.89718577101211       -0.67158337285127
C            6.68704484520285       -0.86772304435297       -1.08747763891443
C            6.25165513894076        0.43922179395661       -0.96302260694823
C            5.00128951668401        0.69887911387826       -0.44295210628369
C            4.15676312285238       -0.34225659900737       -0.04737440965630
N            2.90571942906993       -0.04584891768849        0.47661174358562
C            2.45166363646684        1.29369192307275        0.46798805751540
C            2.34187386500875        2.00651209401436        1.65856175401546
C            1.80004311613045        3.27604632788143        1.65555640059118
C            1.33603586909533        3.83802160830246        0.46699761319924
C            0.51800953459383        5.07249968876371        0.53252232267925
O            0.61423014429143        5.92405035490667        1.38088130090011
C           -0.58161554082419        5.06479869773906       -0.54496104067310
O           -0.68856993587952        5.91350596881744       -1.39483029645050
C           -1.38418446408464        3.82026668139734       -0.47684608897703
C           -1.55568179628680        3.13288612459302        0.72598462454354
C           -2.10439781973356        1.86865794884560        0.72924931287933
C           -2.46628274259210        1.26170399028490       -0.47190899581926
N           -2.90269172479137       -0.08384121137168       -0.47694014641985
C           -2.02052815206880       -1.06869266162647       -0.90674978388322
C           -0.75388620965119       -0.71268872229184       -1.37774371430837
C            0.14076386354803       -1.67080623659658       -1.80400407803314
C           -0.20902137104363       -3.00693613247024       -1.76114035052104
C           -1.45365228814367       -3.36241685199955       -1.27840134948011
C           -2.37443618970132       -2.41971523144988       -0.84277047687605
C           -3.71607132674544       -2.88346676181130       -0.30803062448967
C           -3.47664281463417       -3.81318099418622        0.89500956570523
C           -4.45595174629627       -3.63957067141750       -1.42688207816302
C           -4.57973202091648       -1.72113985899425        0.14176771144271
C           -5.84454486756484       -1.96779409686172        0.65884635086678
C           -6.68471036444196       -0.94698484295747        1.06253488505113
C           -6.26516447459576        0.36486276094942        0.93524778656210
C           -5.01414955784730        0.63814522713125        0.42378571553432
C           -4.15341485967885       -0.39392882769682        0.03960569449408
C           -2.36398252554704        1.97221141476639       -1.66447989037971
C           -1.83893338595768        3.24880105746415       -1.66443673388294
C            1.51478004275912        3.14927051627014       -0.73403199443193
C            2.07988568293027        1.89231521932592       -0.73439817523204
C            2.03880471729235       -1.04029061531320        0.91557767688465
C            0.76924764102224       -0.69897468227471        1.38964338312745
C           -0.11056671724725       -1.66671160031120        1.82488804248047
C            0.25741875287843       -2.99815249729106        1.78872509692168
C            1.50482985389873       -3.33935675123425        1.30286645853888
C            2.41058896537176       -2.38676023165369        0.85725542266045
H            3.01140902087485       -3.24508344671285       -1.67261197124690
H            4.46748026497259       -4.15243218898389       -1.26307838438118
H            2.91500503442160       -4.63040963997763       -0.58510617057203
H            5.48020751483515       -3.92139205337583        1.09016925555220
H            3.94618413257321       -4.42801317928880        1.79182727762350
H            4.67532337385072       -2.89781488759181        2.27960025700084
H            6.22271748302004       -2.91128045874459       -0.75968148792857
H            7.66271093572268       -1.08473975615076       -1.49434021742944
H            6.88528028487931        1.25963588797630       -1.26463888464345
H            4.67525470278779        1.72193210555699       -0.33234667592054
H            2.66281284877311        1.54668883223690        2.58130623417106
H            1.69026328273634        3.83363110520043        2.57374236117419
H           -1.25474419201718        3.59109150466090        1.65658842385339
H           -2.22919112528185        1.32554123060340        1.65415861979386
H           -0.46153925288659        0.32608804947218       -1.39929448219725
H            1.11300914741286       -1.36917509272767       -2.16513384585211
H            0.47970948172880       -3.76786361012400       -2.09346930509729
H           -1.71002528204010       -4.41017781959497       -1.24092313790157
H           -4.41700333785875       -4.19413142636561        1.28373028242436
H           -2.85677611283804       -4.65996953584102        0.61462455764189
H           -2.97280103540277       -3.26603131138980        1.68904902320722
H           -4.62474791884029       -2.97583458994148       -2.27280711951020
H           -5.41898752862343       -4.00315217466563       -1.07943977066336
H           -3.87373848872989       -4.49036171269833       -1.76970860738223
H           -6.19103455539521       -2.98604326715856        0.74972102005717
H           -7.66084494712666       -1.17458821542261        1.46243468272747
H           -6.91164268350034        1.17845474474555        1.22794549254394
H           -4.70015181896816        1.66473967424285        0.31106104931879
H           -2.67731575628319        1.50537601879309       -2.58631511267506
H           -1.73497775696041        3.80501976320733       -2.58413148359572
H            1.20654525393648        3.60064804293124       -1.66557929800109
H            2.21019804110101        1.34814805858305       -1.65793286675774
H            0.46260755341495        0.33574783273656        1.40630794550402
H           -1.08549616765832       -1.37625507302848        2.18790958404077
H           -0.41950843221775       -3.76635864868365        2.12854885277186
H            1.77562621914167       -4.38367144333425        1.27093764281587
