  84
       -126.59076632
 C          3.5390289630       -3.7911411415       -0.8666028061
 C          3.7680320134       -2.8369756318        0.3191989793
 C          4.5325385421       -3.5590696939        1.4440017304
 C          4.6035544106       -1.6642209806       -0.1559621672
 C          5.8655402833       -1.8940879516       -0.6876566444
 C          6.6821864787       -0.8631426444       -1.1131167448
 C          6.2419755034        0.4424808672       -0.9918080190
 C          4.9938086222        0.6991791699       -0.4650627121
 C          4.1555126920       -0.3436415943       -0.0605687373
 N          2.9062455646       -0.0505919325        0.4699050093
 C          2.4500347296        1.2879791192        0.4694838551
 C          2.3358789528        1.9908133266        1.6656627993
 C          1.7929445434        3.2597563797        1.6719299600
 C          1.3320898638        3.8314757878        0.4867943599
 C          0.5142415313        5.0654867566        0.5600218657
 O          0.6081950876        5.9100636120        1.4156366400
 C         -0.5819726814        5.0672235720       -0.5210110038
 O         -0.6864735838        5.9223874665       -1.3646410893
 C         -1.3852730377        3.8224577562       -0.4638583548
 C         -1.5631322788        3.1293213806        0.7347708034
 C         -2.1130367118        1.8656103524        0.7289334031
 C         -2.4692550130        1.2650014438       -0.4770932471
 N         -2.9082664351       -0.0798516264       -0.4890872673
 C         -2.0232972796       -1.0666129551       -0.9084399564
 C         -0.7557159960       -0.7125605112       -1.3782504606
 C          0.1419081817       -1.6729127335       -1.7933339257
 C         -0.2059416164       -3.0091403317       -1.7400200995
 C         -1.4520532233       -3.3624643347       -1.2594012963
 C         -2.3761038652       -2.4175735621       -0.8356647151
 C         -3.7189349784       -2.8789814312       -0.3017728107
 C         -3.4817120863       -3.7923674806        0.9141010227
 C         -4.4510415191       -3.6521090479       -1.4139600584
 C         -4.5886569795       -1.7139734088        0.1292547608
 C         -5.8574690805       -1.9574219317        0.6379385057
 C         -6.7023837045       -0.9338471900        1.0245177682
 C         -6.2834853150        0.3773183211        0.8884951378
 C         -5.0282077759        0.6474086033        0.3857855353
 C         -4.1631018172       -0.3872257551        0.0187749962
 C         -2.3597194331        1.9808097844       -1.6658330727
 C         -1.8338278872        3.2570973777       -1.6567134511
 C          1.5144076627        3.1526635656       -0.7193422481
 C          2.0804329689        1.8961337661       -0.7288404509
 C          2.0437622710       -1.0476855990        0.9118874123
 C          0.7721240529       -0.7107974814        1.3836772654
 C         -0.1035179988       -1.6810318894        1.8215136739
 C          0.2707344570       -3.0108717031        1.7907818289
 C          1.5200121279       -3.3479225832        1.3068474699
 C          2.4213155818       -2.3927110260        0.8576494567
 H          3.0184022238       -3.2675916507       -1.6657148432
 H          4.4839699201       -4.1594312504       -1.2562706839
 H          2.9391254787       -4.6459721076       -0.5679340048
 H          5.5004536743       -3.9073099922        1.0942719558
 H          3.9710880200       -4.4164184261        1.8048941014
 H          4.6937712858       -2.8784744640        2.2779171752
 H          6.2288363921       -2.9069815558       -0.7723678493
 H          7.6562564464       -1.0778659611       -1.5250166706
 H          6.8701752837        1.2642317111       -1.3010945765
 H          4.6650584246        1.7215078708       -0.3559440485
 H          2.6540195541        1.5230891804        2.5854934440
 H          1.6793733763        3.8090800609        2.5946823416
 H         -1.2666662607        3.5828033157        1.6691824963
 H         -2.2429856630        1.3179100731        1.6503889098
 H         -0.4649626360        0.3265004596       -1.4076433030
 H          1.1150184947       -1.3729569431       -2.1535765330
 H          0.4853687150       -3.7719184777       -2.0626257252
 H         -1.7067740944       -4.4103195152       -1.2136741923
 H         -4.4229379431       -4.1677464474        1.3062472126
 H         -2.8614435832       -4.6428985341        0.6460572707
 H         -2.9790413900       -3.2349805363        1.7017673225
 H         -4.6217358677       -2.9989772441       -2.2676788498
 H         -5.4126687186       -4.0177307375       -1.0648710493
 H         -3.8630328430       -4.5032742255       -1.7458075710
 H         -6.2031766919       -2.9752486137        0.7363483602
 H         -7.6816110094       -1.1589552925        1.4182021817
 H         -6.9335877295        1.1927156054        1.1678427955
 H         -4.7138640097        1.6731864072        0.2665898095
 H         -2.6689018726        1.5188012462       -2.5914870685
 H         -1.7249578500        3.8179067925       -2.5730773658
 H          1.2083235848        3.6115364526       -1.6479398731
 H          2.2127598233        1.3598211241       -1.6566063399
 H          0.4600099447        0.3223202947        1.3959950854
 H         -1.0802845919       -1.3935912064        2.1818756636
 H         -0.4031692257       -3.7808357978        2.1326378275
 H          1.7959532932       -4.3910136523        1.2791276368
