  73
  -120.898402777300       0.239894741307220      !
 C         -7.4495203863        0.3919174625       -3.5639038290
 C         -6.1011483294        0.0841878024       -3.5711696285
 C         -5.3547686464        0.1761055874       -2.4086963213
 C         -5.9508451259        0.5768749747       -1.2174527808
 C         -7.3187118371        0.8952872336       -1.2205442977
 C         -8.0571525748        0.7998886658       -2.3864273229
 O         -7.9728318481        1.3119689915       -0.0913894966
 C         -7.2435260684        1.4248414475        1.0626122076
 C         -7.9077665105        1.8542770032        2.1974648085
 C         -7.2251802683        1.9806358718        3.3974505788
 C         -5.8783961288        1.6721194589        3.4585299027
 C         -5.2058425636        1.2414295446        2.3276978675
 C         -5.8744213154        1.1166430286        1.1142977045
 N         -5.2326562030        0.6832612745       -0.0359208212
 C         -3.8450975467        0.3719396320       -0.0080499810
 C         -2.9022589312        1.4073688301       -0.0654703400
 C         -1.5705628169        1.0949574453       -0.0456996995
 C         -1.1390760897       -0.2406772135        0.0342154577
 C         -2.0879438460       -1.2916479322        0.1006691117
 C         -3.4448092671       -0.9430103788        0.0739614832
 C         -1.6319936332       -2.6564425863        0.1972447561
 C         -2.5065199702       -3.7522486046        0.2637146592
 C         -2.0384998060       -5.0398914516        0.3621174249
 C         -0.6662240290       -5.2919570201        0.3988201121
 C          0.2163020814       -4.2455073510        0.3332410420
 C         -0.2428156972       -2.9225287292        0.2311986831
 C          0.7137459998       -1.8610528264        0.1572026027
 N          2.0128657203       -2.1080846696        0.1850766890
 C          2.9178026350       -1.1344383350        0.1051911802
 C          4.2870623562       -1.3774993048        0.1214797145
 C          5.2172191695       -0.3485912156        0.0237413791
 C          6.6455963875       -0.6874951870       -0.0189729262
 C          7.4933455366       -0.1603961741       -0.9935490054
 C          8.8270709521       -0.5281688826       -0.9865665704
 N          9.3529251308       -1.3608669902       -0.1035222438
 C          8.5494875908       -1.8723215204        0.8139377085
 C          7.2001328175       -1.5777360564        0.9003291747
 C          4.7708194454        0.9800425779       -0.0813617462
 C          5.7115930264        2.1080242038       -0.1180343774
 C          5.5756978879        3.1251477851       -1.0621901464
 C          6.4827864749        4.1702908139       -1.0522578404
 N          7.4769495828        4.2680751810       -0.1858676559
 C          7.5993031154        3.3127101472        0.7207273557
 C          6.7534959139        2.2208139508        0.8023874044
 C          3.4073795582        1.2462539087       -0.1042449843
 C          2.4580258143        0.2315756837       -0.0155756225
 N          1.1498280170        0.4671905906       -0.0344754706
 C          0.2608874918       -0.5143539801        0.0493766393
 H         -8.0318511983        0.3205234883       -4.4686694416
 H         -5.6196002237       -0.2283417723       -4.4845878695
 H         -4.3021225382       -0.0595163691       -2.4182563169
 H         -9.1050057179        1.0509985475       -2.3514726354
 H         -8.9585610951        2.0827224357        2.1207814126
 H         -7.7499416685        2.3157187957        4.2778141382
 H         -5.3416464928        1.7629280242        4.3898620214
 H         -4.1565844120        0.9964472526        2.3790507319
 H         -3.2385056117        2.4312447539       -0.1266166011
 H         -0.8150816063        1.8639441562       -0.0926108044
 H         -4.2087817424       -1.7031855171        0.1179100982
 H         -3.5729875541       -3.5934349798        0.2378091451
 H         -2.7366322254       -5.8625194093        0.4115226938
 H         -0.3057813310       -6.3066174627        0.4773106791
 H          1.2830619106       -4.4074583404        0.3569649758
 H          4.6182353731       -2.4031086708        0.1798444986
 H          7.1139484141        0.5123036290       -1.7474862440
 H          9.5138380345       -0.1367627752       -1.7258452823
 H          9.0160071640       -2.5522439221        1.5154555214
 H          6.5895184306       -2.0114489526        1.6779463870
 H          4.7889955585        3.0839629671       -1.8006286933
 H          6.4149667773        4.9721330066       -1.7764791265
 H          8.4182343719        3.4331281508        1.4180975353
 H          6.8916532735        1.4754223743        1.5705337799
 H          3.0552706819        2.2649804049       -0.1615973493
  73
  -120.898166879700       0.186900170330437      !
 C         -7.3549751088        0.6838592887       -3.6621132089
 C         -6.0040851963        0.3867915200       -3.6599632304
 C         -5.2885825188        0.3858375224       -2.4746273839
 C         -5.9189529999        0.6831818234       -1.2709157561
 C         -7.2908069807        0.9841023772       -1.2815670175
 C         -7.9978078614        0.9828390973       -2.4705017702
 O         -7.9792296655        1.2873394546       -0.1365479299
 C         -7.2815632945        1.2996274565        1.0424554003
 C         -7.9798938397        1.6117938015        2.1949365551
 C         -7.3273865301        1.6395807679        3.4180358787
 C         -5.9756443369        1.3542726630        3.4839213726
 C         -5.2691049016        1.0393419622        2.3356660943
 C         -5.9090675881        1.0074975199        1.1011565227
 N         -5.2324003892        0.6928255840       -0.0669388134
 C         -3.8435394231        0.3834571012       -0.0286509674
 C         -2.9008137661        1.4148540273       -0.1338592346
 C         -1.5690722726        1.1033176197       -0.0955486104
 C         -1.1382359623       -0.2271379177        0.0485874101
 C         -2.0877491479       -1.2739152560        0.1597703121
 C         -3.4443929479       -0.9263145044        0.1145203320
 C         -1.6333291878       -2.6337854565        0.3143891454
 C         -2.5088932221       -3.7240539112        0.4360116658
 C         -2.0418649210       -5.0071352575        0.5850211555
 C         -0.6696666131       -5.2600764144        0.6190534497
 C          0.2137385024       -4.2189122212        0.5021907449
 C         -0.2444365366       -2.9005127885        0.3492483372
 C          0.7128315247       -1.8439298556        0.2293955170
 N          2.0115990264       -2.0929542632        0.2552222094
 C          2.9175886477       -1.1241084712        0.1395108782
 C          4.2863393422       -1.3706703171        0.1495955273
 C          5.2180923031       -0.3471165840        0.0198070629
 C          6.6443286099       -0.6935984462       -0.0348370689
 C          7.4794851363       -0.1939754138       -1.0343686993
 C          8.8105322133       -0.5713955349       -1.0411272976
 N          9.3449886616       -1.3882661684       -0.1485057783
 C          8.5535289286       -1.8725368259        0.7938704720
 C          7.2078355188       -1.5664576578        0.8955595665
 C          4.7745972863        0.9806202871       -0.1080649762
 C          5.7187987845        2.1042807652       -0.1710135620
 C          5.5724934980        3.1134614479       -1.1222895839
 C          6.4830881532        4.1555106504       -1.1353285368
 N          7.4906401593        4.2577051447       -0.2848940539
 C          7.6233517518        3.3100574206        0.6284164284
 C          6.7750185151        2.2220395205        0.7326495291
 C          3.4114420761        1.2495686989       -0.1281584418
 C          2.4601282341        0.2393052192       -0.0131836777
 N          1.1520434867        0.4767436613       -0.0340311321
 C          0.2617738944       -0.5007682473        0.0787579959
 H         -7.9131293186        0.6846922757       -4.5846841268
 H         -5.4971885523        0.1537389725       -4.5833722552
 H         -4.2347549326        0.1547039358       -2.4739538257
 H         -9.0495867499        1.2179173833       -2.4421065665
 H         -9.0326060769        1.8299816214        2.1138608018
 H         -7.8786497261        1.8849964554        4.3118258971
 H         -5.4611543013        1.3745632468        4.4319467316
 H         -4.2151139080        0.8153293252        2.3884554692
 H         -3.2368949002        2.4346791122       -0.2432044856
 H         -0.8131249421        1.8692457684       -0.1746247968
 H         -4.2090452382       -1.6830783584        0.1918435308
 H         -3.5753111627       -3.5643909150        0.4141824467
 H         -2.7406848732       -5.8256579140        0.6757132422
 H         -0.3100367121       -6.2712865353        0.7360875420
 H          1.2804415426       -4.3814702815        0.5241098330
 H          4.6150777900       -2.3956197017        0.2293215165
 H          7.0920596996        0.4643895324       -1.7968889563
 H          9.4871061368       -0.2041215480       -1.8018913970
 H          9.0273789245       -2.5385921745        1.5037145165
 H          6.6073227412       -1.9770546977        1.6934126165
 H          4.7745982181        3.0689472952       -1.8483387844
 H          6.4062194028        4.9518338794       -1.8647605565
 H          8.4548120679        3.4321567135        1.3104234247
 H          6.9212629071        1.4845895227        1.5070508284
 H          3.0610822565        2.2675407511       -0.2059333883
  73
  -120.898140946600       0.181840940772207      !
 C         -7.6580825095       -0.1735509408       -3.3149960237
 C         -6.3121018881       -0.4890577580       -3.3509269570
 C         -5.4965572241       -0.2102245641       -2.2675298621
 C         -6.0175721473        0.3851105150       -1.1227656500
 C         -7.3807857856        0.7223678301       -1.1049686955
 C         -8.1896857160        0.4387670998       -2.1911793592
 O         -7.9650621245        1.3481783793       -0.0364625336
 C         -7.1753416894        1.6308301465        1.0456413121
 C         -7.7773469809        2.2539935437        2.1243373436
 C         -7.0390471210        2.5485047873        3.2596240808
 C         -5.7006760728        2.2048859302        3.3151720901
 C         -5.0907279302        1.5823676032        2.2394961738
 C         -5.8112358249        1.3000750994        1.0830468038
 N         -5.2308923887        0.6784085924       -0.0154949843
 C         -3.8471308825        0.3666549231       -0.0099584072
 C         -2.9029104833        1.4036068097       -0.0354114737
 C         -1.5711666038        1.0926809438       -0.0294381331
 C         -1.1368325907       -0.2443309819       -0.0061918690
 C         -2.0849216823       -1.2976844485        0.0161064263
 C         -3.4418770387       -0.9502285809        0.0190559689
 C         -1.6278108529       -2.6653877957        0.0426920878
 C         -2.5011515981       -3.7640583872        0.0493961668
 C         -2.0317117136       -5.0546004519        0.0803431880
 C         -0.6591720903       -5.3067413605        0.1056303097
 C          0.2222386169       -4.2574434950        0.0950067084
 C         -0.2383460015       -2.9313650523        0.0620379692
 C          0.7169602786       -1.8667094370        0.0424292521
 N          2.0164679723       -2.1132721347        0.0607226357
 C          2.9204969240       -1.1363868948        0.0387969071
 C          4.2900608908       -1.3787850698        0.0454444670
 C          5.2194727388       -0.3452860717        0.0153454863
 C          6.6478119153       -0.6823343674       -0.0449178083
 C          7.4962394898       -0.1019071478       -0.9880444039
 C          8.8288457332       -0.4735332233       -1.0036952864
 N          9.3529157767       -1.3569984331       -0.1702773780
 C          8.5489880670       -1.9174198329        0.7177232489
 C          7.2004093279       -1.6249351187        0.8217342787
 C          4.7729245756        0.9873320128       -0.0078862095
 C          5.7128947631        2.1153154827        0.0353416209
 C          5.5708580850        3.2016697939       -0.8275619251
 C          6.4766748927        4.2444821302       -0.7429103593
 N          7.4769244654        4.2767358681        0.1215832095
 C          7.6057522155        3.2548084927        0.9515215107
 C          6.7604820130        2.1594761679        0.9555655511
 C          3.4089024047        1.2529388959       -0.0243696389
 C          2.4601536429        0.2341855652       -0.0060617692
 N          1.1516748757        0.4686260611       -0.0265544299
 C          0.2632181033       -0.5164461302        0.0000025382
 H         -8.2950503545       -0.3929664007       -4.1569577118
 H         -5.8853295824       -0.9532399736       -4.2262812538
 H         -4.4457007489       -0.4486930532       -2.3089731425
 H         -9.2318227636        0.7094251010       -2.1369821466
 H         -8.8255617885        2.4964348368        2.0555460382
 H         -7.5146476417        3.0355792377        4.0958476572
 H         -5.1211536224        2.4157168790        4.2004669830
 H         -4.0494132097        1.3073669467        2.2947978813
 H         -3.2388809974        2.4291771773       -0.0630105041
 H         -0.8173065334        1.8644594030       -0.0496571227
 H         -4.2032273506       -1.7138907106        0.0466680213
 H         -3.5678182358       -3.6054328762        0.0284509314
 H         -2.7288970741       -5.8794569443        0.0849179486
 H         -0.2976501338       -6.3237420810        0.1320914134
 H          1.2891716914       -4.4192796662        0.1101803284
 H          4.6220009256       -2.4058047041        0.0430441207
 H          7.1177999761        0.6143583965       -1.7012921267
 H          9.5161056451       -0.0432654110       -1.7205579812
 H          9.0143492748       -2.6370671376        1.3792118858
 H          6.5887854310       -2.1012641253        1.5732275375
 H          4.7800394440        3.2163292280       -1.5624870372
 H          6.4030974881        5.0995587315       -1.4027393001
 H          8.4303521179        3.3213001952        1.6493619587
 H          6.9035834632        1.3591012835        1.6654832145
 H          3.0553717349        2.2727571776       -0.0195892972
  73
  -120.898006869200       0.157787996881156      !
 C         -7.2764535230        1.9110177309       -3.4873303475
 C         -5.9440385667        1.5506013219       -3.5733109209
 C         -5.2552755029        1.1352804057       -2.4464106658
 C         -5.8896016517        1.0812816145       -1.2091412615
 C         -7.2485937108        1.4270423688       -1.1362947831
 C         -7.9295613472        1.8425236716       -2.2667451279
 O         -7.9566192512        1.3609421930        0.0337976183
 C         -7.2924151286        0.9466247624        1.1572247943
 C         -8.0173400301        0.8873055519        2.3343872752
 C         -7.4019664785        0.4966555051        3.5130998275
 C         -6.0563786135        0.1775949930        3.5098630775
 C         -5.3245900362        0.2330454199        2.3359298193
 C         -5.9307354051        0.6035250579        1.1393156594
 N         -5.2291992193        0.6696021999       -0.0587365481
 C         -3.8473886050        0.3508519134       -0.0987898860
 C         -2.9059218072        1.3667161905       -0.3197603061
 C         -1.5747581740        1.0528715101       -0.3202873584
 C         -1.1381104445       -0.2649989526       -0.0979028500
 C         -2.0845669881       -1.3007624889        0.1033138375
 C         -3.4409502100       -0.9515180606        0.0957450466
 C         -1.6265834528       -2.6526921923        0.3101786905
 C         -2.4990703635       -3.7381734897        0.4842274952
 C         -2.0284270076       -5.0138634494        0.6789406116
 C         -0.6555894646       -5.2633953043        0.7097973774
 C          0.2249117859       -4.2263422560        0.5445090433
 C         -0.2369873696       -2.9158525640        0.3425867280
 C          0.7170999911       -1.8629482499        0.1761104582
 N          2.0164281970       -2.1011577111        0.2425829180
 C          2.9195924367       -1.1348742321        0.0924439716
 C          4.2877124268       -1.3611015761        0.1998339800
 C          5.2161878576       -0.3384052127        0.0422800514
 C          6.6376930822       -0.6344795193        0.2619753719
 C          7.2402088492       -1.7528255828       -0.3135961819
 C          8.5783231627       -1.9958616387       -0.0578969761
 N          9.3273005485       -1.2274313792        0.7149784113
 C          8.7556311858       -0.1734991039        1.2737696475
 C          7.4282055017        0.1676245613        1.0857334110
 C          4.7707865034        0.9599495466       -0.2618342939
 C          5.7140111720        2.0520428512       -0.5355898361
 C          6.7980377628        1.8788394611       -1.3966179561
 C          7.6431149881        2.9492209805       -1.6288898785
 N          7.4819487145        4.1422412005       -1.0806441141
 C          6.4489841427        4.3131967796       -0.2728889780
 C          5.5394217229        3.3149848637        0.0295542149
 C          3.4076129381        1.2122125833       -0.3577108049
 C          2.4586581228        0.2094803505       -0.1764823944
 N          1.1503004083        0.4368899627       -0.2351694679
 C          0.2621939922       -0.5336965867       -0.0624504055
 H         -7.8132063208        2.2374961634       -4.3636896651
 H         -5.4308846036        1.5875280641       -4.5215901659
 H         -4.2193890205        0.8448417663       -2.5227961802
 H         -8.9710307773        2.1035438157       -2.1695870484
 H         -9.0611056245        1.1556789943        2.3059704712
 H         -7.9736236131        0.4515954802        4.4263217369
 H         -5.5642808397       -0.1149471719        4.4242815763
 H         -4.2731548715       -0.0064041717        2.3454706515
 H         -3.2427312920        2.3805564823       -0.4747982752
 H         -0.8225749738        1.8106980818       -0.4760888756
 H         -4.2008290420       -1.7007993388        0.2530637533
 H         -3.5659208951       -3.5815036070        0.4629409267
 H         -2.7248957022       -5.8290267186        0.8086049971
 H         -0.2930925425       -6.2688310366        0.8625144436
 H          1.2920056270       -4.3864508898        0.5634328912
 H          4.6171336909       -2.3589170941        0.4463735556
 H          6.6758302020       -2.4046937144       -0.9634341163
 H          9.0813771235       -2.8497638848       -0.4936735561
 H          9.3980792514        0.4261577376        1.9054897624
 H          7.0087224619        1.0311713211        1.5787893515
 H          6.9680071084        0.9304659112       -1.8828960913
 H          8.4949657420        2.8500217583       -2.2892355272
 H          6.3494615018        5.3034507660        0.1530317727
 H          4.7202120543        3.5026537938        0.7072759752
 H          3.0556688951        2.2022400978       -0.6046701177
  73
  -120.897438406200       8.646223473497185E-002 !
 C         -6.8112550967        2.4361333716       -3.4697661085
 C         -5.4919851313        2.0218194491       -3.4528823369
 C         -4.9582586469        1.4242029232       -2.3240277980
 C         -5.7347686618        1.2402761071       -1.1836173219
 C         -7.0825972401        1.6306482836       -1.2245457367
 C         -7.6087941359        2.2296476627       -2.3556601788
 O         -7.9319239604        1.4306765639       -0.1700916199
 C         -7.4269467943        0.8205635237        0.9465021436
 C         -8.3035710473        0.6055726566        1.9954133035
 C         -7.8569004493        0.0197267074        3.1687973782
 C         -6.5255916548       -0.3329709213        3.2923297998
 C         -5.6429215137       -0.1222702835        2.2468358346
 C         -6.0793655490        0.4381408795        1.0499116294
 N         -5.2267365715        0.6567087281       -0.0273539091
 C         -3.8474081158        0.3457127943        0.0567227659
 C         -2.9032439545        1.3809436418       -0.0290774192
 C         -1.5714525276        1.0763450780        0.0146183899
 C         -1.1348999729       -0.2507412384        0.1723091490
 C         -2.0809633932       -1.2980828149        0.2979084361
 C         -3.4384410737       -0.9616979605        0.2129053349
 C         -1.6195053839       -2.6503771869        0.4957338085
 C         -2.4901224368       -3.7395710104        0.6555096037
 C         -2.0175957616       -5.0146963641        0.8497769568
 C         -0.6443140096       -5.2600036675        0.8946957103
 C          0.2345839913       -4.2191540077        0.7455688826
 C         -0.2289685054       -2.9087691084        0.5458555380
 C          0.7240753324       -1.8534457477        0.3895597991
 N          2.0250310515       -2.0927728421        0.4202013679
 C          2.9245160631       -1.1285705563        0.2381828047
 C          4.2958800873       -1.3594644618        0.2737601197
 C          5.2184284432       -0.3447887200        0.0444227286
 C          6.6502041300       -0.6445285600        0.1712314944
 C          7.2066824951       -1.7809358057       -0.4152463911
 C          8.5596766961       -2.0216089352       -0.2523835893
 N          9.3653424625       -1.2342102941        0.4402952253
 C          8.8383285590       -0.1628909399        1.0098167519
 C          7.5010869075        0.1771854686        0.9115936640
 C          4.7623778652        0.9520847070       -0.2520482468
 C          5.6875414347        2.0273593534       -0.6324321534
 C          6.6988780681        1.8152398537       -1.5702444282
 C          7.5228998069        2.8719539568       -1.9138579743
 N          7.4064116989        4.0873613431       -1.4046708506
 C          6.4422543870        4.2948168691       -0.5236750561
 C          5.5602046476        3.3130252225       -0.1071700483
 C          3.3978042383        1.2142259249       -0.2535068425
 C          2.4569837941        0.2189013114       -0.0043007621
 N          1.1489133204        0.4534008705        0.0091710289
 C          0.2651983530       -0.5190591682        0.1914527973
 H         -7.2262632763        2.9083413510       -4.3457800848
 H         -4.8672183557        2.1589959043       -4.3216652390
 H         -3.9317345839        1.0939802034       -2.3262392865
 H         -8.6459359403        2.5236518633       -2.3427987766
 H         -9.3305232259        0.9099147894        1.8724997331
 H         -8.5465322761       -0.1477644311        3.9805855462
 H         -6.1622499882       -0.7734414398        4.2077086730
 H         -4.6037130089       -0.3858306969        2.3620543748
 H         -3.2405144240        2.4013521738       -0.1322162493
 H         -0.8192607752        1.8462121112       -0.0614178342
 H         -4.1955086513       -1.7285065129        0.2620731835
 H         -3.5573605677       -3.5849283064        0.6311020648
 H         -2.7128974363       -5.8324026698        0.9699925735
 H         -0.2802069723       -6.2649418535        1.0469921986
 H          1.3019135097       -4.3759222529        0.7769382324
 H          4.6346467666       -2.3568279446        0.5091331485
 H          6.5952214158       -2.4483424153       -1.0037030562
 H          9.0275814274       -2.8893520683       -0.6997171581
 H          9.5267744639        0.4519071230        1.5750113053
 H          7.1206269632        1.0556944225        1.4100162936
 H          6.8275294249        0.8477555377       -2.0310588655
 H          8.3177786722        2.7425931435       -2.6368993610
 H          6.3773730737        5.3023442471       -0.1327717489
 H          4.7989257756        3.5317850174        0.6265913177
 H          3.0354290153        2.2031969855       -0.4893769012
  73
  -120.897322832200       7.650896437527380E-002 !
 C         -7.5493496226        1.8624595495       -3.3381261581
 C         -6.2529505629        1.4287077409       -3.5486212875
 C         -5.4715180183        1.0111358811       -2.4847091159
 C         -5.9761062145        1.0274232594       -1.1882247774
 C         -7.3000107187        1.4500876345       -0.9868082972
 C         -8.0736140963        1.8676616592       -2.0550086246
 O         -7.8808851816        1.4627666244        0.2531309458
 C         -7.1184679863        1.0617968453        1.3176055165
 C         -7.7084802389        1.1005593269        2.5687473663
 C         -6.9876032734        0.7261602583        3.6915286203
 C         -5.6718194941        0.3227238507        3.5572377486
 C         -5.0741994553        0.2818118717        2.3092297614
 C         -5.7878411941        0.6384054144        1.1690692553
 N         -5.2211664609        0.6118091619       -0.1004505610
 C         -3.8511018625        0.2741179585       -0.2529789463
 C         -2.9187795864        1.2792607688       -0.5491410610
 C         -1.5887036521        0.9635415010       -0.5863008629
 C         -1.1461540657       -0.3464969617       -0.3315191784
 C         -2.0874497469       -1.3800314211       -0.0989164384
 C         -3.4424899062       -1.0275751960       -0.0588612477
 C         -1.6229666996       -2.7282397785        0.1165655426
 C         -2.4905538986       -3.8230200821        0.2504365955
 C         -2.0145075356       -5.0930621516        0.4682274896
 C         -0.6417900356       -5.3256431415        0.5666255418
 C          0.2341368178       -4.2799765525        0.4328334127
 C         -0.2327551056       -2.9765606465        0.1998693753
 C          0.7151640838       -1.9154074286        0.0490771483
 N          2.0120707609       -2.1292190981        0.1957869864
 C          2.9078348458       -1.1542251556        0.0553528442
 C          4.2688502300       -1.3462682978        0.2668483506
 C          5.1894115566       -0.3151557010        0.1151011173
 C          6.5947497008       -0.5682625043        0.4568051502
 C          7.2513290730       -1.7160876423        0.0131600987
 C          8.5683505501       -1.9186473017        0.3866002268
 N          9.2488754934       -1.0829987386        1.1531027563
 C          8.6258229594        0.0008261497        1.5856724023
 C          7.3126547385        0.3052653481        1.2746499464
 C          4.7450959336        0.9536566048       -0.2970890561
 C          5.6855634716        2.0471417810       -0.5744553689
 C          6.8302284013        1.8450469825       -1.3461771477
 C          7.6687749923        2.9182592917       -1.5892829627
 N          7.4468291254        4.1396886261       -1.1323400728
 C          6.3570544859        4.3372532594       -0.4096698250
 C          5.4481448480        3.3389970082       -0.1054553254
 C          3.3876150237        1.1730413128       -0.4961633478
 C          2.4443330075        0.1652600092       -0.3140209016
 N          1.1382096907        0.3689037000       -0.4511881357
 C          0.2549359283       -0.6036340835       -0.2650763187
 H         -8.1581044976        2.1906928373       -4.1654748622
 H         -5.8412824600        1.4105392531       -4.5456668810
 H         -4.4638332715        0.6653990622       -2.6541827208
 H         -9.0837705414        2.1902024546       -1.8603688219
 H         -8.7319987889        1.4312822037        2.6413601511
 H         -7.4542884631        0.7579959204        4.6630857392
 H         -5.0976058345        0.0392413731        4.4254615790
 H         -4.0438376270       -0.0224557808        2.2170110311
 H         -3.2603376086        2.2892615326       -0.7184523087
 H         -0.8410891713        1.7162663268       -0.7830129905
 H         -4.1955937959       -1.7696454769        0.1554607338
 H         -3.5565063034       -3.6779726108        0.1710684645
 H         -2.7062960084       -5.9171085774        0.5626814885
 H         -0.2753210393       -6.3259532751        0.7419396047
 H          1.3011932105       -4.4288282167        0.4963059764
 H          4.5966026679       -2.3218111496        0.5919960182
 H          6.7452722295       -2.4229803574       -0.6269971992
 H          9.1114540837       -2.7947161265        0.0553404275
 H          9.2119090124        0.6555244507        2.2175920014
 H          6.8475128505        1.1945463267        1.6719185728
 H          7.0514140040        0.8719118973       -1.7573113779
 H          8.5654771238        2.7977516138       -2.1832270929
 H          6.2090674042        5.3500164512       -0.0566350178
 H          4.5810171408        3.5498710314        0.5022988719
 H          3.0364551245        2.1403657445       -0.8214880700
  73
  -120.896856553500       4.671167812390877E-002 !
 C         -6.9995953461        2.5483662834       -3.3386413738
 C         -5.6603440649        2.2059285095       -3.3747609081
 C         -5.0659620533        1.5792032669       -2.2928700449
 C         -5.7999154788        1.2945211291       -1.1449180715
 C         -7.1683959987        1.6090887120       -1.1356496055
 C         -7.7554765961        2.2373080129       -2.2199575534
 O         -7.9819084231        1.3008217446       -0.0791511588
 C         -7.4111310243        0.6946550910        1.0070083240
 C         -8.2451203775        0.3973255990        2.0707178051
 C         -7.7318312891       -0.1861180500        3.2175829242
 C         -6.3769860983       -0.4499584307        3.3011671049
 C         -5.5375633791       -0.1587736045        2.2395724027
 C         -6.0404425816        0.3944786481        1.0653189284
 N         -5.2319174055        0.6855792006       -0.0298943004
 C         -3.8493797954        0.3810325172       -0.0071211833
 C         -2.9044231355        1.4135470478       -0.1122039539
 C         -1.5721286204        1.1051635489       -0.0980680805
 C         -1.1337336654       -0.2216927842        0.0559614633
 C         -2.0806476302       -1.2682466125        0.1862593063
 C         -3.4377719690       -0.9285366955        0.1274424740
 C         -1.6224579288       -2.6224352108        0.3788541471
 C         -2.4930836011       -3.7179339704        0.4863391663
 C         -2.0221709420       -4.9921765036        0.6903046759
 C         -0.6512195345       -5.2297342743        0.8004968644
 C          0.2276317918       -4.1833751989        0.6969707236
 C         -0.2342486338       -2.8749439711        0.4815603730
 C          0.7191044829       -1.8165793993        0.3518168339
 N          2.0171933114       -2.0479937592        0.4568653195
 C          2.9219805266       -1.0899967238        0.2714850662
 C          4.2891992110       -1.3115514492        0.3984558058
 C          5.2222035010       -0.3152464895        0.1347576335
 C          6.6449125959       -0.5933175202        0.3647804466
 C          7.2278541160       -1.7886357069       -0.0562023784
 C          8.5696225241       -2.0055666990        0.2035414587
 N          9.3421047578       -1.1401742246        0.8385356929
 C          8.7900712094       -0.0109814492        1.2511742623
 C          7.4602914519        0.3106611685        1.0476867689
 C          4.7796383840        0.9485785779       -0.2969498694
 C          5.7267522174        1.9746230260       -0.7524365287
 C          6.7595739665        1.6533739139       -1.6347096900
 C          7.6118587349        2.6563941658       -2.0592989680
 N          7.5036795827        3.9185655075       -1.6778428852
 C          6.5194501120        4.2286942572       -0.8511196790
 C          5.6073004716        3.3082776723       -0.3642210600
 C          3.4170299396        1.2103937271       -0.3701045274
 C          2.4643966663        0.2373868997       -0.0782066857
 N          1.1564836952        0.4715709498       -0.1161297650
 C          0.2663955534       -0.4905254034        0.0913150741
 H         -7.4621893184        3.0432266263       -4.1775782779
 H         -5.0667210184        2.4227475214       -4.2491059364
 H         -4.0246524640        1.3036383548       -2.3398864187
 H         -8.8072708088        2.4683313454       -2.1681684572
 H         -9.2925623443        0.6359775072        1.9798824120
 H         -8.3883724944       -0.4199048470        4.0403730268
 H         -5.9614233208       -0.8847133415        4.1968394529
 H         -4.4809445590       -0.3565470327        2.3240395858
 H         -3.2392796050        2.4364248562       -0.1961631616
 H         -0.8209374715        1.8751434546       -0.1830429966
 H         -4.1952262786       -1.6936538888        0.1935054770
 H         -3.5585161034       -3.5705327594        0.4053168490
 H         -2.7170266467       -5.8155776089        0.7658539764
 H         -0.2887551864       -6.2335404780        0.9637659757
 H          1.2934802997       -4.3345621320        0.7737084187
 H          4.6138946129       -2.2864526264        0.7282667073
 H          6.6462733893       -2.5220485376       -0.5941336145
 H          9.0561907197       -2.9191229854       -0.1137749474
 H          9.4517022537        0.6693627261        1.7715811964
 H          7.0587149525        1.2403254984        1.4209961171
 H          6.8832391996        0.6416780150       -1.9898856097
 H          8.4238521200        2.4419993108       -2.7420496688
 H          6.4605234704        5.2721924986       -0.5688387501
 H          4.8292917689        3.6127768753        0.3196266241
 H          3.0675521045        2.1778620954       -0.6970410023
  73
  -120.896223024400       2.389327347482591E-002 !
 C         -6.8728122255        2.7687417523       -3.2642519729
 C         -5.5373476941        2.4105665074       -3.2813174846
 C         -4.9836462614        1.7111292094       -2.2226969048
 C         -5.7539728380        1.3684835517       -1.1148342364
 C         -7.1197650231        1.6937296503       -1.1316952177
 C         -7.6664237195        2.3955798085       -2.1918801688
 O         -7.9715608893        1.3237775708       -0.1267557157
 C         -7.4455998296        0.6292867321        0.9283869795
 C         -8.3247714453        0.2471443210        1.9267957018
 C         -7.8605410390       -0.4234346042        3.0463593619
 C         -6.5083665352       -0.6839573603        3.1721404635
 C         -5.6243299422       -0.3087086105        2.1751109766
 C         -6.0775663688        0.3254857611        1.0214573810
 N         -5.2253585920        0.6924731414       -0.0177384174
 C         -3.8449111284        0.3877890743        0.0350441432
 C         -2.8984601250        1.4232126559       -0.0271827489
 C         -1.5662874026        1.1151721740       -0.0103521864
 C         -1.1284939702       -0.2142285542        0.1208830699
 C         -2.0760388400       -1.2614260194        0.2371506952
 C         -3.4323207274       -0.9235634770        0.1525830481
 C         -1.6192095636       -2.6142174269        0.4422135502
 C         -2.4919808952       -3.7048425911        0.5779314471
 C         -2.0229765345       -4.9766465038        0.8006837253
 C         -0.6516716264       -5.2167038336        0.9006647682
 C          0.2291981316       -4.1748228138        0.7722205395
 C         -0.2308198370       -2.8684213886        0.5408281607
 C          0.7239277189       -1.8137621171        0.3939493551
 N          2.0231102624       -2.0478508492        0.4814120433
 C          2.9272380037       -1.0926344101        0.2808903402
 C          4.2959449735       -1.3144658034        0.3921596436
 C          5.2266932699       -0.3205288569        0.1117789688
 C          6.6499079898       -0.5956186317        0.3424936144
 C          7.2339836822       -1.7969474141       -0.0595898997
 C          8.5735116115       -2.0126427180        0.2127549764
 N          9.3427413072       -1.1405802673        0.8426593544
 C          8.7902362119       -0.0043014286        1.2348098961
 C          7.4626592131        0.3171521726        1.0168376842
 C          4.7808545268        0.9396484327       -0.3277102332
 C          5.7198053508        1.9613417470       -0.8078392140
 C          6.7540928831        1.6310639235       -1.6851296860
 C          7.5914720770        2.6340759155       -2.1387899217
 N          7.4675206343        3.9044888820       -1.7910412838
 C          6.4823796446        4.2230074755       -0.9683611300
 C          5.5855817406        3.3033419727       -0.4530619412
 C          3.4173228859        1.2022743160       -0.3838571461
 C          2.4677196045        0.2345654118       -0.0671636487
 N          1.1601812047        0.4732130824       -0.0806761605
 C          0.2711448621       -0.4862073919        0.1410776466
 H         -7.3031918806        3.3225557323       -4.0832250049
 H         -4.9146160054        2.6714866741       -4.1227633686
 H         -3.9453161210        1.4233276417       -2.2586697558
 H         -8.7170523626        2.6350382615       -2.1573605025
 H         -9.3681764935        0.4908295952        1.8074591768
 H         -8.5520009708       -0.7245220389        3.8170166646
 H         -6.1293918681       -1.1817655659        4.0510849543
 H         -4.5709186406       -0.5035360783        2.2969257521
 H         -3.2322296627        2.4481584178       -0.0865409727
 H         -0.8149854543        1.8869675759       -0.0757922620
 H         -4.1875426302       -1.6931010132        0.1808853887
 H         -3.5580377607       -3.5547073657        0.5105924993
 H         -2.7197766175       -5.7957209590        0.9012997032
 H         -0.2906240814       -6.2186486264        1.0778729374
 H          1.2952021493       -4.3277840744        0.8431233036
 H          4.6237985482       -2.2875123374        0.7244146775
 H          6.6552237587       -2.5364862042       -0.5921950493
 H          9.0612230862       -2.9305815014       -0.0899885284
 H          9.4485927822        0.6807908297        1.7532071109
 H          7.0591859948        1.2513141052        1.3768563688
 H          6.8896778953        0.6127778327       -2.0163638584
 H          8.4039286605        2.4127567700       -2.8188438172
 H          6.4125551328        5.2720466937       -0.7099953357
 H          4.8080760171        3.6151207134        0.2279935090
 H          3.0635735843        2.1665625520       -0.7154895354
