  73
       -121.37325337
 C         -7.6785953246       -0.6426422415       -3.2080727983
 C         -6.3334435369       -0.9636623692       -3.2045853103
 C         -5.5107515397       -0.5293744528       -2.1793135426
 C         -6.0236325060        0.2306664993       -1.1325774853
 C         -7.3860882545        0.5705523066       -1.1571258681
 C         -8.2021617005        0.1311139925       -2.1845109840
 O         -7.9626414018        1.3495876863       -0.1899581229
 C         -7.1657740153        1.7875304962        0.8336177578
 C         -7.7599980671        2.5655085790        1.8113580085
 C         -7.0142018864        3.0232119874        2.8860650282
 C         -5.6761496609        2.6879869250        2.9842330601
 C         -5.0739631936        1.9110732450        2.0093376434
 C         -5.8020752061        1.4622642416        0.9117861844
 N         -5.2296316429        0.6828806265       -0.0856762748
 C         -3.8464382712        0.3716224512       -0.0419572325
 C         -2.9004852676        1.3907338739       -0.2264946515
 C         -1.5693042496        1.0805012027       -0.1821649489
 C         -1.1372968857       -0.2394391327        0.0367287731
 C         -2.0871680523       -1.2752280649        0.2206029689
 C         -3.4434380276       -0.9274770239        0.1798220104
 C         -1.6324203193       -2.6250865519        0.4472218519
 C         -2.5077238022       -3.7082089251        0.6219668316
 C         -2.0404784968       -4.9811471990        0.8413758550
 C         -0.6682758267       -5.2304913385        0.8958444346
 C          0.2149825324       -4.1967985365        0.7245039308
 C         -0.2433547042       -2.8890416633        0.4977703806
 C          0.7137708128       -1.8416963505        0.3148367576
 N          2.0129103840       -2.0863624487        0.3619847457
 C          2.9185838820       -1.1260192063        0.1900829517
 C          4.2877144578       -1.3684863996        0.2246900485
 C          5.2188243389       -0.3534386098        0.0361565378
 C          6.6461439725       -0.6995973349        0.0183009542
 C          7.4898324143       -0.2678703991       -1.0054248625
 C          8.8216313241       -0.6413422634       -0.9734761453
 N          9.3491811472       -1.3927792246       -0.0212265589
 C          8.5496900546       -1.8130238295        0.9447576470
 C          7.2023157788       -1.5046610185        1.0120269245
 C          4.7745950794        0.9621920662       -0.1819998790
 C          5.7168871105        2.0815303218       -0.3121033169
 C          5.5715551620        3.0281904752       -1.3258369189
 C          6.4797920782        4.0695412349       -1.4021379327
 N          7.4853875771        4.2269922063       -0.5578183688
 C          7.6174270575        3.3391896396        0.4138306994
 C          6.7701833541        2.2588971667        0.5852869659
 C          3.4109885133        1.2261361963       -0.2298102506
 C          2.4604968658        0.2239738299       -0.0550133420
 N          1.1523505961        0.4563501246       -0.1024851681
 C          0.2622623226       -0.5114446704        0.0751212257
 H         -8.3211226582       -0.9828305073       -4.0044403223
 H         -5.9129079949       -1.5537667356       -4.0038171727
 H         -4.4606099076       -0.7742215342       -2.1909992802
 H         -9.2434465511        0.4096628713       -2.1650405070
 H         -8.8081675034        2.7979190472        1.7134268378
 H         -7.4837627360        3.6302816086        3.6434858681
 H         -5.0908163179        3.0262730438        3.8250602636
 H         -4.0328364326        1.6444810872        2.0988009087
 H         -3.2347310049        2.4017674798       -0.4040426919
 H         -0.8141635192        1.8386726982       -0.3210687433
 H         -4.2060085237       -1.6765045376        0.3248757705
 H         -3.5742052054       -3.5515354533        0.5838970092
 H         -2.7391393979       -5.7942851517        0.9723575469
 H         -0.3084703872       -6.2332888515        1.0708472182
 H          1.2816890266       -4.3575043122        0.7573410931
 H          4.6177429658       -2.3853939552        0.3728098809
 H          7.1083401638        0.3356536053       -1.8148676020
 H          9.5052681129       -0.3240951957       -1.7502281900
 H          9.0177782425       -2.4278102772        1.7030132673
 H          6.5944412840       -1.8625267006        1.8294227796
 H          4.7762680446        2.9357883911       -2.0502016047
 H          6.4037390601        4.8174333899       -2.1811226069
 H          8.4464164188        3.5062486566        1.0892826666
 H          6.9161671488        1.5723439033        1.4052835620
 H          3.0593711722        2.2363342985       -0.3743825635
  73
       -121.37310525
 C         -7.2951144927        1.3984511986       -3.6859023829
 C         -5.9635806331        1.0269608181       -3.7263343099
 C         -5.2685621416        0.7781508661       -2.5550815146
 C         -5.8956067231        0.9052462499       -1.3194509195
 C         -7.2538090999        1.2603799351       -1.2897373769
 C         -7.9410531592        1.5088197634       -2.4645705019
 O         -7.9549610059        1.3658965351       -0.1183971707
 C         -7.2845205985        1.1176205109        1.0494141778
 C         -8.0025231671        1.2309020677        2.2268631102
 C         -7.3805623942        1.0141469215        3.4462225123
 C         -6.0353262075        0.6955473264        3.4815875977
 C         -5.3104447142        0.5788935686        2.3078553932
 C         -5.9233029067        0.7730794101        1.0736554447
 N         -5.2288057312        0.6634983265       -0.1253082578
 C         -3.8475650327        0.3398024889       -0.1266221636
 C         -2.9064411990        1.3111897146       -0.4979181033
 C         -1.5756079079        0.9981698449       -0.4605457595
 C         -1.1389254723       -0.2743276054       -0.0519416051
 C         -2.0851750976       -1.2682585689        0.3027232138
 C         -3.4412412272       -0.9213409362        0.2523524852
 C         -1.6272820012       -2.5767440445        0.7007880090
 C         -2.4997721529       -3.6239402867        1.0353578948
 C         -2.0292177036       -4.8587762535        1.4102737317
 C         -0.6564633680       -5.1036885891        1.4691353322
 C          0.2240460256       -4.1031533805        1.1502086719
 C         -0.2377734162       -2.8349464015        0.7630645830
 C          0.7163290523       -1.8190331350        0.4402438132
 N          2.0157970931       -2.0474459777        0.5331228006
 C          2.9189903353       -1.1147774011        0.2393160577
 C          4.2875026587       -1.3255275218        0.3705492076
 C          5.2160172696       -0.3381630408        0.0610823810
 C          6.6385110095       -0.6018375143        0.3132538793
 C          7.2365288912       -1.7929032007       -0.0975294269
 C          8.5758975501       -1.9987289021        0.1830519348
 N          9.3301780483       -1.1277294671        0.8320584578
 C          8.7628444604       -0.0028856361        1.2354016153
 C          7.4346594671        0.3097812821        1.0074850743
 C          4.7700788180        0.9031920325       -0.4255072425
 C          5.7127217659        1.9423471269       -0.8600916654
 C          6.7914657953        1.6441799048       -1.6930923341
 C          7.6361875893        2.6680447615       -2.0829233305
 N          7.4794217105        3.9282333405       -1.7125256582
 C          6.4514213323        4.2163606296       -0.9322001721
 C          5.5427005297        3.2741928602       -0.4830352729
 C          3.4066061291        1.1413629376       -0.5491517360
 C          2.4577719037        0.1772209954       -0.2190383660
 N          1.1493101551        0.3960931692       -0.3025969532
 C          0.2613039399       -0.5375867810        0.0140887634
 H         -7.8367285671        1.5954037426       -4.5972537291
 H         -5.4560122697        0.9250898790       -4.6728652227
 H         -4.2334270153        0.4778278435       -2.5944706861
 H         -8.9816766268        1.7830567616       -2.4003314999
 H         -9.0461788226        1.4942136446        2.1658031268
 H         -7.9468482116        1.1029942229        4.3595806410
 H         -5.5381083194        0.5377711014        4.4259304183
 H         -4.2592033860        0.3414497709        2.3460018579
 H         -3.2431824231        2.2924518952       -0.7963798583
 H         -0.8236279487        1.7240371102       -0.7288695311
 H         -4.2008994430       -1.6385192848        0.5209824541
 H         -3.5665780795       -3.4700763910        0.9976797391
 H         -2.7256942507       -5.6452646790        1.6607313664
 H         -0.2940407820       -6.0770180891        1.7639354105
 H          1.2910779513       -4.2607626686        1.1860462794
 H          4.6174128010       -2.2776554247        0.7572631770
 H          6.6676846086       -2.5310697083       -0.6427551127
 H          9.0755382915       -2.9076977831       -0.1271871085
 H          9.4095990785        0.6808530043        1.7698247471
 H          7.0189364521        1.2364452192        1.3725213876
 H          6.9576377404        0.6350207551       -2.0376980344
 H          8.4840191403        2.4726148556       -2.7267675519
 H          6.3553780933        5.2580795946       -0.6537877195
 H          4.7276978059        3.5596175566        0.1649880257
 H          3.0541636027        2.0857651363       -0.9350231442
  73
       -121.37297984
 C         -7.4705249221       -0.1209428013       -3.5393493770
 C         -6.1227914613       -0.4300246916       -3.5086827336
 C         -5.3691215483       -0.1686586426       -2.3770709844
 C         -5.9571352431        0.4060737958       -1.2550607514
 C         -7.3244068826        0.7242362395       -1.2974421970
 C         -8.0701653511        0.4589002953       -2.4319553004
 O         -7.9708147961        1.3056496977       -0.2388570842
 C         -7.2342318809        1.5865278222        0.8813661673
 C         -7.8907015687        2.1814269832        1.9437517962
 C         -7.2005301176        2.4825935192        3.1077184952
 C         -5.8539664197        2.1828799642        3.2060982267
 C         -5.1891614057        1.5873142644        2.1478265305
 C         -5.8654051112        1.2856737915        0.9702796511
 N         -5.2315118848        0.6846532984       -0.1065855240
 C         -3.8443835361        0.3771262762       -0.0408660554
 C         -2.9000113368        1.3899918793       -0.2567822330
 C         -1.5687961153        1.0803377155       -0.1985875136
 C         -1.1392855548       -0.2298234814        0.0761587086
 C         -2.0896599162       -1.2567015186        0.3033494399
 C         -3.4460198484       -0.9121830852        0.2330643389
 C         -1.6356377557       -2.5932942323        0.5987571158
 C         -2.5117546330       -3.6647116039        0.8321868164
 C         -2.0455095736       -4.9247688342        1.1178814096
 C         -0.6735005258       -5.1723437409        1.1836292956
 C          0.2105306014       -4.1496257233        0.9583590520
 C         -0.2467695719       -2.8551884874        0.6637694983
 C          0.7112716015       -1.8190618822        0.4275163281
 N          2.0100811599       -2.0627691470        0.4842106358
 C          2.9163008276       -1.1142323274        0.2554672979
 C          4.2851851302       -1.3559234766        0.2997085711
 C          5.2166162758       -0.3554550892        0.0449628898
 C          6.6440782683       -0.7008448685        0.0447368399
 C          7.4867970934       -0.3265205782       -1.0021713847
 C          8.8198611890       -0.6928261510       -0.9484187317
 N          9.3495931908       -1.3866988687        0.0453622785
 C          8.5508632195       -1.7541486754        1.0332091561
 C          7.2026086251       -1.4463209079        1.0827470160
 C          4.7720255128        0.9440857517       -0.2535664958
 C          5.7146304098        2.0515632037       -0.4626886191
 C          5.5748136665        2.9176852415       -1.5465344930
 C          6.4838679245        3.9502494825       -1.6970793374
 N          7.4835093197        4.1728033662       -0.8605741854
 C          7.6096678015        3.3622190404        0.1770405494
 C          6.7623699170        2.2968438913        0.4247451642
 C          3.4089630424        1.2076763486       -0.3077987780
 C          2.4583058726        0.2199868620       -0.0640220142
 N          1.1504525065        0.4537601577       -0.1100946146
 C          0.2602387159       -0.5020424841        0.1236507488
 H         -8.0585295005       -0.3242179602       -4.4201086594
 H         -5.6474358393       -0.8759541157       -4.3683804581
 H         -4.3169893506       -0.4059643027       -2.3576598733
 H         -9.1173202829        0.7152776862       -2.4285796911
 H         -8.9415249343        2.3988325049        1.8401081221
 H         -7.7192595650        2.9460393827        3.9316315863
 H         -5.3113432621        2.4094214883        4.1105123626
 H         -4.1400603772        1.3498003228        2.2288837224
 H         -3.2347422989        2.3943723391       -0.4672523678
 H         -0.8122032780        1.8317829934       -0.3634824672
 H         -4.2111057472       -1.6553308114        0.3937711811
 H         -3.5780670914       -3.5085887232        0.7891826571
 H         -2.7448381992       -5.7290477489        1.2928711615
 H         -0.3144506078       -6.1651030641        1.4097434349
 H          1.2771161329       -4.3091757532        0.9996697426
 H          4.6148222675       -2.3624170799        0.5077147514
 H          7.1040172895        0.2278847146       -1.8453812960
 H          9.5027960316       -0.4173354414       -1.7415679296
 H          9.0204285914       -2.3237132494        1.8251477799
 H          6.5959824185       -1.7581685820        1.9196466565
 H          4.7835184398        2.7695247939       -2.2661097690
 H          6.4130792269        4.6359256364       -2.5318751549
 H          8.4330849843        3.5825527920        0.8440572260
 H          6.9038683709        1.6733192874        1.2941933618
 H          3.0583840247        2.2075707249       -0.5136609094
  73
       -121.37286642
 C         -7.3759391786        0.1542723962       -3.6805049645
 C         -6.0256047797       -0.1428598041       -3.6422047839
 C         -5.3028812191        0.0296776975       -2.4739293343
 C         -5.9253478423        0.5035883907       -1.3238657632
 C         -7.2966907698        0.8033295586       -1.3710227455
 C         -8.0109387191        0.6280436026       -2.5425782875
 O         -7.9775560335        1.2745393232       -0.2795416053
 C         -7.2726829558        1.4592840792        0.8806142171
 C         -7.9633940507        1.9404558673        1.9782107201
 C         -7.3033816497        2.1471767694        3.1799427864
 C         -5.9517844214        1.8711045561        3.2795301125
 C         -5.2528438380        1.3878020358        2.1864746524
 C         -5.9003889288        1.1753458195        0.9739863421
 N         -5.2314406387        0.6894439194       -0.1385563169
 C         -3.8429377252        0.3853917748       -0.0629153703
 C         -2.8989944887        1.3873080375       -0.3250508920
 C         -1.5676136989        1.0812697499       -0.2487370551
 C         -1.1383300198       -0.2143662567        0.0882346305
 C         -2.0890521897       -1.2305909775        0.3585943833
 C         -3.4453114446       -0.8898451614        0.2702237690
 C         -1.6361749257       -2.5538301156        0.7101506563
 C         -2.5129649408       -3.6117220250        0.9968450865
 C         -2.0473739406       -4.8598823474        1.3314162054
 C         -0.6754565263       -5.1087133919        1.3945932714
 C          0.2091140106       -4.0987016880        1.1198284804
 C         -0.2475835749       -2.8162182779        0.7760895840
 C          0.7108582431       -1.7916000013        0.4956595522
 N          2.0093033777       -2.0375731167        0.5505654341
 C          2.9163332370       -1.0989739583        0.2875123426
 C          4.2846685163       -1.3450306199        0.3260816363
 C          5.2174749141       -0.3544790740        0.0408611439
 C          6.6427173917       -0.7090898360        0.0298724065
 C          7.4726645087       -0.3651491801       -1.0373977967
 C          8.8029556914       -0.7430133645       -0.9959011114
 N          9.3413630171       -1.4202341307        0.0046907581
 C          8.5547908107       -1.7575681016        1.0129117319
 C          7.2103032228       -1.4361707729        1.0759416080
 C          4.7756271332        0.9409093498       -0.2795505556
 C          5.7214722924        2.0403228864       -0.5135562694
 C          5.5712004946        2.8980051303       -1.6028571976
 C          6.4835955343        3.9241833146       -1.7752312287
 N          7.4965056564        4.1483813100       -0.9551142170
 C          7.6330643401        3.3459725501        0.0876113081
 C          6.7834024978        2.2876592918        0.3566179472
 C          3.4128669006        1.2076096627       -0.3313638177
 C          2.4604337858        0.2280626369       -0.0626477836
 N          1.1526808875        0.4633394825       -0.1108608468
 C          0.2613371079       -0.4843053212        0.1504941963
 H         -7.9397133576        0.0200758555       -4.5898035282
 H         -5.5247809503       -0.5113711351       -4.5238605079
 H         -4.2494920073       -0.2016613833       -2.4451340546
 H         -9.0620946068        0.8675802489       -2.5432210733
 H         -9.0161824224        2.1470901134        1.8718096417
 H         -7.8487294472        2.5236518055        4.0307323578
 H         -5.4314796322        2.0300771060        4.2111279015
 H         -4.1989600522        1.1712175975        2.2657560579
 H         -3.2338784261        2.3806273939       -0.5821880562
 H         -0.8107690961        1.8250138689       -0.4446612022
 H         -4.2108548373       -1.6247618001        0.4631081410
 H         -3.5792036288       -3.4541630515        0.9577779500
 H         -2.7471172234       -5.6540771887        1.5462827026
 H         -0.3169616599       -6.0924385203        1.6579235876
 H          1.2756330667       -4.2591113090        1.1594113269
 H          4.6120197383       -2.3477812947        0.5547270018
 H          7.0817907749        0.1741675734       -1.8867123305
 H          9.4755401124       -0.4941999579       -1.8065345401
 H          9.0317517203       -2.3125198669        1.8107707059
 H          6.6139259238       -1.7225470605        1.9292280510
 H          4.7688073715        2.7486925958       -2.3097071619
 H          6.4037255475        4.6039952939       -2.6140321700
 H          8.4688942656        3.5654070766        0.7392284210
 H          6.9330285403        1.6725393437        1.2307785678
 H          3.0638939460        2.2038070860       -0.5569222700
  73
       -121.37286512
 C         -6.8260812058        1.9412125042       -3.7421288099
 C         -5.5074311696        1.5301840402       -3.6740699115
 C         -4.9685285562        1.0957233162       -2.4752580436
 C         -5.7390879747        1.0756449242       -1.3163068057
 C         -7.0864677338        1.4596615021       -1.4046612076
 C         -7.6178509509        1.8951557975       -2.6059438162
 O         -7.9303400858        1.4118027007       -0.3281822066
 C         -7.4202742908        0.9633171301        0.8603947032
 C         -8.2914991206        0.8998757154        1.9336366415
 C         -7.8393875132        0.4835327721        3.1753346459
 C         -6.5080121405        0.1484572535        3.3402679553
 C         -5.6307299631        0.2081162072        2.2709804550
 C         -6.0727864800        0.5959460225        1.0094949454
 N         -5.2257058286        0.6590052557       -0.0921978526
 C         -3.8464581011        0.3595611642        0.0275656194
 C         -2.9010532258        1.3701972156       -0.2076681713
 C         -1.5695521952        1.0715314751       -0.1285366680
 C         -1.1343559208       -0.2213125640        0.2117001510
 C         -2.0814622884       -1.2383457683        0.4880487422
 C         -3.4388223415       -0.9139473848        0.3636890806
 C         -1.6211832311       -2.5505722084        0.8714328839
 C         -2.4927271058       -3.6044260088        1.1871051577
 C         -2.0212703860       -4.8407747738        1.5560715837
 C         -0.6481741599       -5.0806656168        1.6278718278
 C          0.2316282355       -4.0732014014        1.3294893200
 C         -0.2308254867       -2.8027290779        0.9501325600
 C          0.7231064076       -1.7821207600        0.6422349910
 N          2.0238095789       -2.0179205893        0.6994350589
 C          2.9238907520       -1.0910127653        0.3791447857
 C          4.2950421618       -1.3179402443        0.4396820340
 C          5.2180113506       -0.3477599946        0.0653344302
 C          6.6499582043       -0.6301856592        0.2255530443
 C          7.2013214020       -1.8390335035       -0.1983943846
 C          8.5547839604       -2.0577242860       -0.0103661949
 N          9.3655422160       -1.1828079543        0.5606770180
 C          8.8434416313       -0.0408552948        0.9768244502
 C          7.5062510419        0.2852926203        0.8387525911
 C          4.7625070828        0.8957290823       -0.4079610719
 C          5.6873653931        1.9046899740       -0.9403802084
 C          6.6931966363        1.5605301187       -1.8443413995
 C          7.5170851705        2.5565227911       -2.3372238101
 N          7.4054135158        3.8316692205       -2.0031771879
 C          6.4464419359        4.1631185063       -1.1550583358
 C          5.5650503975        3.2516821123       -0.6002289412
 C          3.3983848797        1.1583689623       -0.4391417928
 C          2.4572849599        0.2101823770       -0.0477455671
 N          1.1497006528        0.4474145204       -0.0605551880
 C          0.2653769390       -0.4876704016        0.2610735907
 H         -7.2450920720        2.2867265632       -4.6736128842
 H         -4.8872031023        1.5424869553       -4.5567365630
 H         -3.9425839848        0.7659793675       -2.4363960829
 H         -8.6544151598        2.1905614766       -2.6291199627
 H         -9.3186000957        1.1864254943        1.7745282886
 H         -8.5248421967        0.4333689154        4.0061660560
 H         -6.1403984766       -0.1599809514        4.3065370657
 H         -4.5913470046       -0.0391663474        2.4166791978
 H         -3.2371816428        2.3668237342       -0.4513397322
 H         -0.8165055492        1.8212697009       -0.3158399789
 H         -4.1968867564       -1.6644187394        0.5239864274
 H         -3.5598235726       -3.4521612572        1.1467579400
 H         -2.7172657342       -5.6318116837        1.7935392622
 H         -0.2849146497       -6.0551369240        1.9179013302
 H          1.2988506651       -4.2265932085        1.3770272933
 H          4.6334292591       -2.2731842817        0.8110312549
 H          6.5855353974       -2.5809813216       -0.6841088197
 H          9.0187848180       -2.9808168801       -0.3338218659
 H          9.5359961124        0.6455524915        1.4464966198
 H          7.1299912359        1.2260071025        1.2108247485
 H          6.8177095657        0.5376127878       -2.1653767300
 H          8.3077761894        2.3249850704       -3.0390453501
 H          6.3853819561        5.2157101503       -0.9091947401
 H          4.8081665717        3.5731567676        0.0994767336
 H          3.0363729116        2.1052910932       -0.8096820178
  73
       -121.37236372
 C         -7.5693058716        1.3653275127       -3.5278904392
 C         -6.2743597860        0.9039993183       -3.6808292682
 C         -5.4864844520        0.6449254334       -2.5722060820
 C         -5.9830405238        0.8504895036       -1.2888816307
 C         -7.3055509015        1.2995588081       -1.1431422425
 C         -8.0856237366        1.5580008974       -2.2560556487
 O         -7.8787425150        1.4934071361        0.0852304308
 C         -7.1098738505        1.2508627778        1.1921071476
 C         -7.6921261993        1.4721590539        2.4278187146
 C         -6.9644286465        1.2644445389        3.5887609863
 C         -5.6496181178        0.8441855122        3.5066784001
 C         -5.0597393744        0.6212101091        2.2743340997
 C         -5.7803145040        0.8087688955        1.0987480118
 N         -5.2215093352        0.5968598295       -0.1567755877
 C         -3.8525126550        0.2389236493       -0.2668075906
 C         -2.9217468916        1.1890964534       -0.7118869429
 C         -1.5920182455        0.8697503842       -0.7107407371
 C         -1.1482832405       -0.3897283825       -0.2705395346
 C         -2.0884235733       -1.3772376046        0.1158498595
 C         -3.4430873559       -1.0210949960        0.1123683818
 C         -1.6230096866       -2.6802297386        0.5225981516
 C         -2.4900713713       -3.7428007727        0.8197845447
 C         -2.0130573357       -4.9681378067        1.2173604930
 C         -0.6398254005       -5.1855372713        1.3402464286
 C          0.2355619561       -4.1715544999        1.0502417445
 C         -0.2323819245       -2.9154206704        0.6327376583
 C          0.7148957690       -1.8886783583        0.3232212077
 N          2.0126225726       -2.0803812962        0.4916292316
 C          2.9077851124       -1.1373084275        0.2052277240
 C          4.2700263844       -1.2981143590        0.4341686835
 C          5.1899320802       -0.3011988172        0.1282496098
 C          6.5972827046       -0.5035031513        0.4946335285
 C          7.2507714541       -1.7044886134        0.2189410814
 C          8.5700180945       -1.8520571579        0.6098954809
 N          9.2555136859       -0.9144798501        1.2423458214
 C          8.6354639913        0.2215348731        1.5162002940
 C          7.3204862218        0.4789836497        1.1721326217
 C          4.7434456156        0.8945669647       -0.4616620878
 C          5.6824984629        1.9348680055       -0.9010646216
 C          6.8223100932        1.6211560519       -1.6420564370
 C          7.6596499132        2.6465121645       -2.0439921924
 N          7.4408900226        3.9217369066       -1.7685065146
 C          6.3556629664        4.2237567293       -1.0757157095
 C          5.4483611966        3.2815421270       -0.6238154148
 C          3.3848235322        1.0842279371       -0.6823188218
 C          2.4423923503        0.1148493146       -0.3495898897
 N          1.1355051342        0.2978936991       -0.5070201258
 C          0.2531158727       -0.6361104928       -0.1758626877
 H         -8.1830699227        1.5702690816       -4.3905132478
 H         -5.8688707881        0.7403019832       -4.6670759369
 H         -4.4799678154        0.2769920648       -2.6956285115
 H         -9.0944631504        1.9066543982       -2.1043419888
 H         -8.7150797164        1.8111483714        2.4576985489
 H         -7.4250873201        1.4380159485        4.5481349297
 H         -5.0701288009        0.6895125042        4.4034306813
 H         -4.0300562486        0.3055298233        2.2211625532
 H         -3.2640511272        2.1640677098       -1.0244386721
 H         -0.8454152692        1.5849034925       -1.0195412616
 H         -4.1950676286       -1.7231355663        0.4370719224
 H         -3.5564519112       -3.6095939605        0.7266121900
 H         -2.7044885395       -5.7688134191        1.4350456210
 H         -0.2725707219       -6.1500764937        1.6571738634
 H          1.3029470531       -4.3108416438        1.1282358198
 H          4.5994990630       -2.2162791587        0.8959561633
 H          6.7405594788       -2.4964870254       -0.3083296852
 H          9.1108073764       -2.7676796393        0.4064906811
 H          9.2256374904        0.9606005087        2.0424382002
 H          6.8580691524        1.4171997277        1.4384426689
 H          7.0406653717        0.5982506764       -1.9083868431
 H          8.5526266814        2.4397076449       -2.6194840038
 H          6.2101570549        5.2773175129       -0.8730812132
 H          4.5850700209        3.5797255528       -0.0480042746
 H          3.0319403512        1.9942640223       -1.1429420846
  73
       -121.37235719
 C         -7.0147965668        2.0680531698       -3.6264055427
 C         -5.6761743994        1.7213179275       -3.6211511276
 C         -5.0766019655        1.2515395766       -2.4651305643
 C         -5.8045718612        1.1322882297       -1.2847220626
 C         -7.1726037611        1.4477166069       -1.3124936633
 C         -7.7648864013        1.9186205719       -2.4711556388
 O         -7.9806624566        1.2924293838       -0.2189000556
 C         -7.4046462172        0.8436514220        0.9385846769
 C         -8.2331287932        0.7002458004        2.0378900836
 C         -7.7142389955        0.2826013457        3.2525909803
 C         -6.3592710130        0.0304609858        3.3652433572
 C         -5.5253508730        0.1680691143        2.2688658587
 C         -6.0340176351        0.5519555461        1.0312325923
 N         -5.2311795061        0.6848205364       -0.0982550533
 C         -3.8489025757        0.3837850017       -0.0402409585
 C         -2.9033045651        1.3894683038       -0.2942433834
 C         -1.5713220134        1.0835195265       -0.2439770139
 C         -1.1336729846       -0.2094222833        0.0925163292
 C         -2.0811064011       -1.2254617084        0.3734652715
 C         -3.4381266248       -0.8947216319        0.2746936531
 C         -1.6234835517       -2.5400890431        0.7518746178
 C         -2.4948138250       -3.6079406355        1.0167069313
 C         -2.0243101396       -4.8418423736        1.3950817163
 C         -0.6530584729       -5.0642561852        1.5303027848
 C          0.2264603579       -4.0445176801        1.2762464175
 C         -0.2350333036       -2.7783905127        0.8816922122
 C          0.7188563276       -1.7505921239        0.5995997432
 N          2.0172256285       -1.9675030969        0.7292499850
 C          2.9221242353       -1.0467944175        0.4064216992
 C          4.2897546252       -1.2510006858        0.5560275574
 C          5.2224850056       -0.3034148082        0.1501305929
 C          6.6461040224       -0.5492172133        0.4094088876
 C          7.2252927619       -1.7929397978        0.1573623459
 C          8.5682088769       -1.9738767252        0.4379091576
 N          9.3452048575       -1.0294139462        0.9410174151
 C          8.7967986812        0.1476063651        1.1939241254
 C          7.4663055182        0.4400925758        0.9543096499
 C          4.7790636899        0.8881417395       -0.4524136645
 C          5.7248843602        1.8382173275       -1.0524466273
 C          6.7524544752        1.3942581143       -1.8863096641
 C          7.6035899557        2.3260611151       -2.4520185722
 N          7.4990186311        3.6294964837       -2.2509985582
 C          6.5197212840        4.0545511456       -1.4708293507
 C          5.6091632291        3.2133988640       -0.8547118380
 C          3.4163875042        1.1397564426       -0.5544146612
 C          2.4642113585        0.2192355561       -0.1237655295
 N          1.1563904797        0.4483325518       -0.1872933571
 C          0.2663071392       -0.4733656566        0.1578786488
 H         -7.4814047435        2.4411266475       -4.5240625267
 H         -5.0871093079        1.8120679541       -4.5203979148
 H         -4.0358967604        0.9700673355       -2.4784825141
 H         -8.8161030591        2.1566831280       -2.4467688744
 H         -9.2807683972        0.9258280345        1.9199731993
 H         -8.3665250128        0.1679362446        4.1035087436
 H         -5.9393094768       -0.2750447926        4.3108816269
 H         -4.4685207172       -0.0179516955        2.3746895083
 H         -3.2373947893        2.3910787943       -0.5192259651
 H         -0.8196896775        1.8324713299       -0.4401859876
 H         -4.1961202000       -1.6415019286        0.4515286028
 H         -3.5604987893       -3.4712920834        0.9214132812
 H         -2.7197236036       -5.6451196524        1.5891622534
 H         -0.2909019147       -6.0359027138        1.8309849290
 H          1.2925332368       -4.1855168321        1.3678273134
 H          4.6150931382       -2.1705718534        1.0177399785
 H          6.6398867309       -2.5934759411       -0.2691844850
 H          9.0519326213       -2.9238854758        0.2494466628
 H          9.4620939716        0.8929826364        1.6101495492
 H          7.0678992630        1.4137451206        1.1954994061
 H          6.8729555242        0.3424761425       -2.0965614103
 H          8.4115600246        2.0163427495       -3.1021768856
 H          6.4635949900        5.1274591619       -1.3375564006
 H          4.8352910347        3.6124164413       -0.2162983663
 H          3.0662738717        2.0524204786       -1.0121067644
  73
       -121.37189168
 C         -6.8863324227        2.3069444671       -3.5795604075
 C         -5.5514593818        1.9470802669       -3.5539093929
 C         -4.9930816715        1.3989681520       -2.4118661431
 C         -5.7579715846        1.2137577995       -1.2634719078
 C         -7.1233962459        1.5363966772       -1.3180361726
 C         -7.6747363968        2.0866686825       -2.4619969515
 O         -7.9703376155        1.3101329084       -0.2674081866
 C         -7.4397116967        0.7664982870        0.8706498969
 C         -8.3140794604        0.5273173504        1.9166274409
 C         -7.8448089618        0.0163663998        3.1155115384
 C         -6.4923363052       -0.2271368625        3.2691108719
 C         -5.6131055643        0.0053960507        2.2254242004
 C         -6.0716121768        0.4755915260        0.9977311283
 N         -5.2244448544        0.6942000226       -0.0864199648
 C         -3.8441467153        0.3968443120        0.0008165406
 C         -2.8966505847        1.4118773958       -0.2082351341
 C         -1.5648219473        1.1063452411       -0.1559001401
 C         -1.1281224586       -0.1932117999        0.1549649943
 C         -2.0764411754       -1.2124614724        0.4191688716
 C         -3.4326984090       -0.8866709790        0.2957581211
 C         -1.6203453491       -2.5250574942        0.8062820789
 C         -2.4938466234       -3.5847962362        1.0953525133
 C         -2.0253732155       -4.8147655195        1.4887697072
 C         -0.6538800221       -5.0415911976        1.6138992948
 C          0.2276927642       -4.0291469007        1.3387057666
 C         -0.2317938418       -2.7661183699        0.9319200277
 C          0.7235748604       -1.7437088170        0.6363328036
 N          2.0228882853       -1.9661982343        0.7486075597
 C          2.9272194919       -1.0495673321        0.4138431213
 C          4.2961992155       -1.2567807575        0.5476560769
 C          5.2267783370       -0.3128519500        0.1283265254
 C          6.6508280040       -0.5564777306        0.3875036764
 C          7.2311464447       -1.8029369569        0.1517573836
 C          8.5718114475       -1.9818283424        0.4444116019
 N          9.3455462963       -1.0329095077        0.9442857831
 C          8.7966578952        0.1476867152        1.1789932791
 C          7.4683744383        0.4387922301        0.9255655221
 C          4.7803032699        0.8757034735       -0.4782752917
 C          5.7180609768        1.8195966382       -1.0993114365
 C          6.7472294098        1.3695093820       -1.9279890040
 C          7.5835325384        2.2987540829       -2.5197203135
 N          7.4631355444        3.6052072724       -2.3496414840
 C          6.4828070376        4.0360248241       -1.5736828799
 C          5.5875254003        3.1979439317       -0.9320789682
 C          3.4168463717        1.1309036641       -0.5631370355
 C          2.4676406514        0.2179929827       -0.1113580244
 N          1.1603704440        0.4551999689       -0.1509738815
 C          0.2712375528       -0.4627017898        0.2053224542
 H         -7.3203126569        2.7435728235       -4.4648119163
 H         -4.9328566191        2.0883408569       -4.4264237670
 H         -3.9553445336        1.1068152589       -2.4131265071
 H         -8.7248444650        2.3307644648       -2.4554549356
 H         -9.3577756635        0.7543947772        1.7701627984
 H         -8.5325688880       -0.1742863597        3.9237942661
 H         -6.1093665361       -0.5999276946        4.2063084910
 H         -4.5593245097       -0.1729685766        2.3675632195
 H         -3.2293546052        2.4195663918       -0.4065032355
 H         -0.8128428891        1.8602226895       -0.3308328480
 H         -4.1887916104       -1.6434188353        0.4336164450
 H         -3.5600436646       -3.4431690519        1.0133892882
 H         -2.7227278339       -5.6107390696        1.7047778957
 H         -0.2932415013       -6.0103236875        1.9255860817
 H          1.2938520962       -4.1730822440        1.4245883073
 H          4.6245066756       -2.1754680363        1.0090981931
 H          6.6485732612       -2.6075872764       -0.2709662445
 H          9.0566752232       -2.9337184534        0.2685137393
 H          9.4586779716        0.8962886097        1.5947396805
 H          7.0680736815        1.4144655060        1.1555298027
 H          6.8796859639        0.3150303432       -2.1164967052
 H          8.3920673465        1.9842087745       -3.1669249784
 H          6.4157641956        5.1107924432       -1.4619177258
 H          4.8140676752        3.6021524945       -0.2965191797
 H          3.0626351243        2.0410552573       -1.0226246650
