  126
       -201.87463016
 C         -6.0580502475       -5.9582621516        0.9700644426
 C         -7.0274392981       -5.6201060707       -0.1714481431
 C         -8.3479047166       -6.3794704976        0.0214816520
 C         -6.3966396970       -6.0844516133       -1.4866910629
 C         -7.3070448686       -4.1263948503       -0.1510666405
 C         -7.8955514221       -3.5558669215        0.9772010069
 C         -8.1596676665       -2.2036191201        1.0504460995
 C         -7.8423256618       -1.3787809447       -0.0238632239
 N         -8.0677839342        0.0110250942        0.0511146925
 C         -7.0823133367        0.9736900830        0.0517552947
 C         -5.6537731238        0.7186043781        0.0119989977
 C         -5.0574314118       -0.4070488379        0.5795410737
 C         -3.6903407104       -0.5788475364        0.5176427015
 C         -2.8796598241        0.3723367726       -0.0986939824
 C         -1.4231294412        0.1803359476       -0.1520019299
 C         -0.8528336565       -1.0476894104       -0.4909472597
 F         -1.6454779187       -2.0782622140       -0.8293826667
 C          0.5205047286       -1.2384449491       -0.5182110328
 F          0.9901807687       -2.4430884832       -0.8777879046
 C          1.4133740943       -0.2111245019       -0.2113253801
 C          2.8696873206       -0.4127121679       -0.2110910008
 C          3.7143288131        0.5158531849       -0.8149277549
 C          5.0834834527        0.3481232243       -0.7848162955
 C          5.6457870304       -0.7474023533       -0.1300280715
 C          7.0738153362       -0.9846416693       -0.0273323989
 N          7.5801762031       -2.1915048372        0.0716100330
 C          8.9233992618       -2.0308172916        0.1539739293
 C          9.9203589915       -3.0423892340        0.2429420596
 C          9.5778007693       -4.3982917938        0.2416208739
 C         10.5552697480       -5.3598224311        0.3026421295
 C         11.8924023192       -4.9726469300        0.3621699043
 C         12.2397799618       -3.6418397595        0.3687829092
 C         11.2698641338       -2.6290987080        0.3157070058
 C         11.6024970891       -1.2148193305        0.3517037488
 C         12.9268092514       -0.7759099707        0.4899710820
 C         13.2501248442        0.5583226910        0.5631087198
 C         12.2487525511        1.5225518808        0.5164107978
 C         10.9389086336        1.1356751175        0.3751507308
 C         10.5904193192       -0.2186316533        0.2723498264
 C          9.2499327892       -0.6746057747        0.1225174280
 N          8.0511874317       -0.0139537973       -0.0068270360
 C          7.8286249670        1.3766216035       -0.0841698744
 C          8.2364958392        2.0901245998       -1.2065494983
 C          7.9898231599        3.4453656524       -1.2838173282
 C          7.3296255664        4.1277587696       -0.2624739178
 C          7.0785350906        5.6198807051       -0.4049414179
 C          6.3400871222        6.2114799761        0.7983974967
 C          6.2242245663        5.8638593156       -1.6570283006
 C          8.4269078545        6.3412137109       -0.5431269988
 C          6.9286472735        3.3960740872        0.8491040090
 C          7.1729325416        2.0372472673        0.9437259268
 C          4.7942847058       -1.6955780560        0.4434608179
 C          3.4276317162       -1.5339300668        0.4030807450
 C          0.8439819225        1.0197673125        0.1166232050
 F          1.6377538402        2.0506520098        0.4507798583
 C         -0.5293598219        1.2097121731        0.1472157993
 F         -0.9962474251        2.4138758143        0.5118742389
 C         -3.4715175905        1.5120838248       -0.6429367894
 C         -4.8373181868        1.6807164146       -0.5870745123
 N         -7.5801751555        2.1860503038        0.1099595714
 C         -8.9269489819        2.0368914562        0.1584854819
 C         -9.9140411903        3.0559025333        0.2688915996
 C         -9.5552341659        4.4051723174        0.3499972713
 C        -10.5204853872        5.3718662879        0.4823766172
 C        -11.8610786058        4.9962953760        0.5391583018
 C        -12.2248463804        3.6724105342        0.4566603950
 C        -11.2686493142        2.6553880694        0.3129737899
 C        -11.6216782716        1.2507783269        0.1928509722
 C        -12.9587426695        0.8297573223        0.1705034396
 C        -13.3058585130       -0.4917591400        0.0181797494
 C        -12.3185211850       -1.4591571098       -0.1367178629
 C        -10.9960968790       -1.0902970153       -0.1131858501
 C        -10.6203386742        0.2482526018        0.0688223823
 C         -9.2654293538        0.6841318174        0.1085142008
 C         -7.2592194134       -1.9274405489       -1.1561298659
 C         -6.9967318509       -3.2848661000       -1.2126598345
 H         -6.4800822755       -5.7060238165        1.9389730281
 H         -5.8318492183       -7.0221015267        0.9643474349
 H         -5.1278956281       -5.4074773457        0.8476133645
 H         -9.0512895265       -6.1171135324       -0.7661694638
 H         -8.8056725166       -6.1474508011        0.9790532947
 H         -8.1704932640       -7.4518972271       -0.0184024971
 H         -7.0545084392       -5.8841448975       -2.3292842851
 H         -6.2233300149       -7.1577584199       -1.4449641408
 H         -5.4391504181       -5.5974979859       -1.6555915306
 H         -8.1504855807       -4.1720474682        1.8256614690
 H         -8.6119941254       -1.7777011724        1.9345406991
 H         -5.6531021786       -1.1442838993        1.0940103821
 H         -3.2462257992       -1.4497689690        0.9747233364
 H          3.2964161023        1.3679729660       -1.3289594499
 H          5.7080236301        1.0676763036       -1.2898133929
 H          8.5311730358       -4.6539060758        0.1846193896
 H         10.2960602869       -6.4082486081        0.2995507267
 H         12.6662073534       -5.7257201602        0.4035852032
 H         13.2877475643       -3.3912853214        0.4140385061
 H         13.7267783143       -1.4959648891        0.5496670745
 H         14.2825700976        0.8574591031        0.6689697682
 H         12.4981837195        2.5703893731        0.5952316382
 H         10.1650649981        1.8862589662        0.3571973733
 H          8.7477210071        1.5763128502       -2.0078891405
 H          8.3188067505        3.9743555783       -2.1649735981
 H          6.1849138176        7.2763742245        0.6385916524
 H          6.9181255193        6.0911800433        1.7117545452
 H          5.3654441019        5.7467976417        0.9271971217
 H          5.2740724709        5.3409204170       -1.5707423572
 H          6.7255137357        5.5163805648       -2.5561051556
 H          6.0233498627        6.9268362539       -1.7698526011
 H          8.9698127297        6.0066194025       -1.4227703092
 H          8.2687981524        7.4139131364       -0.6292824878
 H          9.0457213079        6.1534425940        0.3320595343
 H          6.4149626593        3.8745716631        1.6657697104
 H          6.8505175471        1.4834311939        1.8130233741
 H          5.2345679109       -2.5554800825        0.9223727550
 H          2.7873984622       -2.2677956368        0.8678708371
 H         -2.8599518228        2.2590120853       -1.1248153387
 H         -5.3014921741        2.5598716109       -1.0046071480
 H         -8.5054531079        4.6510560318        0.3108388951
 H        -10.2484977317        6.4150763764        0.5464015952
 H        -12.6246848871        5.7529180971        0.6491622734
 H        -13.2746830258        3.4308085622        0.5080789940
 H        -13.7505944142        1.5545666063        0.2680509737
 H        -14.3474625320       -0.7773154528        0.0072530138
 H        -12.5892450001       -2.4949973309       -0.2786167371
 H        -10.2349615565       -1.8415483599       -0.2510323142
 H         -7.0074344400       -1.2875993169       -1.9890443339
 H         -6.5414288610       -3.6739693127       -2.1077065619
