55
 energy: -80.160833936814 gnorm: 0.000082021166 xtb: 6.7.1 (edcfbbe)
C           -5.31751739024457        0.09873904344756       -0.75429027819102
C           -3.80168178540187       -0.09523675225327       -0.80704162317239
C           -3.39944962382679       -0.35193498672844       -2.27784086576421
C           -3.33349400793456       -1.27280607516729        0.02006610705101
C           -4.16382235034951       -2.29098165478929        0.45940152353586
C           -3.66458766299761       -3.36590520998403        1.17745432503661
C           -2.31415263910908       -3.42646153178265        1.48787931096114
C           -1.46766470836552       -2.42377502251995        1.06735057636256
C           -1.96280062430339       -1.35401904050640        0.31538095380151
N           -1.12318885200653       -0.30610007856483       -0.05491138944395
C            0.22556748779131       -0.49785411525565       -0.27387695746232
C            0.66165104193624       -1.70189935695048       -0.82888780490876
C            1.99486429635925       -1.95487213818473       -0.98774615616335
C            2.97256336685122       -1.03000403906675       -0.50722308293543
C            4.31649165945931       -1.33039877618641       -0.60814704099391
C            5.31540814549099       -0.42670233380328       -0.13375186311263
C            6.66565218679300       -0.73585895809315       -0.24065644926259
N            7.79210743418744       -0.99126752792238       -0.33151639858207
C            4.89523947868917        0.76788410989147        0.45853461008060
C            3.56341890354057        1.08112609117876        0.55723543555588
C            2.53131906317790        0.21803630487644        0.05631061418650
C            1.16918981875582        0.53759093874786        0.07263779605765
C            0.63906247010610        1.89006831462600        0.49713864693019
C            1.37922839396389        3.02259593458901       -0.26166848885716
C            0.77501112975169        2.02560267971408        2.03405395617735
C           -0.84007596847028        2.05830147577157        0.21777261156905
C           -1.43013883350720        3.31227423019544        0.30982821233819
C           -2.78595043402436        3.47485825465886        0.10274046711875
C           -3.58250319502070        2.38838678230168       -0.23406424625002
C           -3.03824009612499        1.12327119486274       -0.32850542729358
C           -1.66550045910193        0.96545878008954       -0.06036130615664
H           -5.60978168846380        0.93657932623759       -1.38108557624755
H           -5.65156798115918        0.28111831860268        0.26453686180070
H           -5.82204000075838       -0.78150466778151       -1.14286966375191
H           -3.68842411185104        0.49661083121965       -2.89397274283713
H           -2.32599602657238       -0.49648008058228       -2.37516276272651
H           -3.90196261958697       -1.24286606623808       -2.64793497700993
H           -5.21886316819997       -2.25925772305318        0.24444892618629
H           -4.33126174423903       -4.14979536870745        1.50295300070187
H           -1.92315233491117       -4.24817321521275        2.06839851413300
H           -0.42239185534488       -2.44538057452015        1.33572508719487
H           -0.07129263761465       -2.42554493198187       -1.15546766882258
H            2.33282189144510       -2.86524668545121       -1.45815603303140
H            4.62972012135275       -2.26454218397621       -1.05223201899143
H            5.63919046718886        1.44884662663171        0.85063814302136
H            3.30974953844578        2.00157597636965        1.05106595155104
H            1.59732210370132        3.85781787778561        0.39853897263662
H            2.31050802434431        2.67087784020625       -0.69237709277872
H            0.76291867174966        3.38240730503385       -1.08301539991793
H            0.43612011270988        3.00758944472660        2.35470604673893
H            0.15497422748599        1.27370367272207        2.52058379961310
H            1.79792659890945        1.87876514553087        2.36353392105185
H           -0.82670688927473        4.17236615920400        0.55129379079947
H           -3.22845273677093        4.45577253204037        0.18712594706345
H           -4.62989199320670        2.55105979750503       -0.42395003677951
