55
 energy: -80.160833179257 gnorm: 0.000128007746 xtb: 6.7.1 (edcfbbe)
C           -5.31149455172833        0.10408673201567       -0.77404031566544
C           -3.79568181935287       -0.09154340651926       -0.82146011086512
C           -3.38886211163135       -0.35119491354340       -2.29046081410886
C           -3.33166032355969       -1.26803587672264        0.00951592365301
C           -4.16463671615633       -2.28504758145175        0.44662501938013
C           -3.66981230889275       -3.35802508487240        1.17053820840782
C           -2.32130817985663       -3.41754325968969        1.48951739000968
C           -1.47216196508005       -2.41651541135611        1.07050082526520
C           -1.96254230844473       -1.34924856363569        0.31183639803304
N           -1.11993891589245       -0.30367856566727       -0.05867326446397
C            0.22924625526061       -0.49839253889915       -0.27185934668970
C            0.66536711065676       -1.70662456324294       -0.81797071129972
C            1.99859120178666       -1.96355461105088       -0.96914630254815
C            2.97622473884951       -1.03716623610800       -0.49141212067964
C            4.31976346910712       -1.34180959232219       -0.58361330560123
C            5.31889964469825       -0.43587623956579       -0.11398863107418
C            6.66869196514515       -0.74979307907787       -0.21154437243968
N            7.79495809891661       -1.00890427343128       -0.29411878894753
C            4.89912327770175        0.76627291139612        0.46321895010072
C            3.56767973259970        1.08330491616393        0.55392493473856
C            2.53526277561211        0.21666576112604        0.05950618979093
C            1.17347617415976        0.53780918495433        0.07088343576153
C            0.64424120601099        1.89340368599261        0.48668382230724
C            1.38471077680773        3.02052792211621       -0.28010026138248
C            0.78126825207984        2.03876405508902        2.02252352003684
C           -0.83474542475347        2.06130360451386        0.20642831221675
C           -1.42390583212048        3.31598068184700        0.29460931848409
C           -2.77929687829645        3.47919568994623        0.08531848849716
C           -3.57600117848193        2.39274566813402       -0.25130640957931
C           -3.03259507035138        1.12703972795823       -0.34245487109248
C           -1.66066529616161        0.96845576450366       -0.07029394582893
H           -5.60074387911298        0.94181350301363       -1.40237026522864
H           -5.64881460034483        0.28746543599293        0.24353024400511
H           -5.81566795526794       -0.77585169827551       -1.16375020398708
H           -3.67594312247541        0.49609210931942       -2.90922572449747
H           -2.31509858895272       -0.49593100692071       -2.38413349160231
H           -3.89021785163842       -1.24287762129058       -2.66034274512336
H           -5.21839518193501       -2.25376489760355        0.22542515494338
H           -4.33842985143478       -4.14105803365803        1.49410326473990
H           -1.93393305796593       -4.23734373856724        2.07515901642327
H           -0.42845866706425       -2.43748598379836        1.34495431841568
H           -0.06759503239837       -2.43073213095458       -1.14345540933598
H            2.33659946356024       -2.87779514611024       -1.43197757682895
H            4.63257836796956       -2.28089848740822       -1.01747453936604
H            5.64315572506842        1.44999063717070        0.85036421592012
H            3.31450404890373        2.01010309683932        1.03593523075508
H            2.31368370417579        2.66430997203310       -0.71210352171298
H            0.76654312158518        3.37801205334785       -1.10105291577229
H            1.60696642160133        3.85844345870554        0.37538977128252
H            0.44147120916756        3.02228474946728        2.33746669933753
H            0.16260126506999        1.28911283698912        2.51425989557162
H            1.80465315600254        1.89527639648601        2.35203353946332
H           -0.82003213897127        4.17611512479071        0.53489368809823
H           -3.22125773549669        4.46055313766943        0.16735687113631
H           -4.62283055778183        2.55601835536863       -0.44373597423762
