55
 energy: -80.242228838663 gnorm: 0.000075637523 xtb: 6.7.1 (edcfbbe)
C           -5.28285751079685        0.09450682587320       -0.87644109082259
C           -3.76670116587432       -0.09964878196501       -0.86898686447679
C           -3.30815525871470       -0.36397616873653       -2.31950557817544
C           -3.33025727899817       -1.26934506817619       -0.00911626995619
C           -4.18571169690075       -2.25957585616792        0.44858918320489
C           -3.71546385448020       -3.32063079627448        1.20393902142588
C           -2.37392948015439       -3.39024999546630        1.53684803781353
C           -1.50698962933772       -2.40419751563136        1.10940926862321
C           -1.97168358298450       -1.35655652799190        0.31731459187959
N           -1.12019547394176       -0.31754301350532       -0.07318295990901
C            0.24686914443936       -0.48650576801044       -0.21421995065469
C            0.68572301137451       -1.71786205010619       -0.75918431932111
C            2.00733574672021       -1.97711254824168       -0.91876721947886
C            2.96905461079609       -1.03153768800781       -0.49966104486427
C            4.33455186683734       -1.33937124180581       -0.59153750597712
C            5.29275930654027       -0.44507701693189       -0.16342291774629
C            6.66283313852075       -0.75624608710666       -0.25757748012567
N            7.78238212878586       -1.00509455554176       -0.33389717405997
C            4.88365870857526        0.78916238682332        0.38740961973720
C            3.55950678212007        1.10700580855674        0.46495283015484
C            2.53913961210122        0.22971128001515        0.01243456389125
C            1.14805351076908        0.52453757667408        0.08750001038968
C            0.63764001420660        1.89525860134049        0.51808613538499
C            1.36552632317855        3.01436911388097       -0.27203975011461
C            0.81300489001431        2.04071899260272        2.04510875477201
C           -0.85350511609403        2.04962359041149        0.25660602096602
C           -1.45331205220312        3.29739978597235        0.37495165870695
C           -2.80774341380631        3.45715512914711        0.15714335856757
C           -3.58594787583653        2.37794076682910       -0.22770722206421
C           -3.02273288529096        1.12087694609573       -0.35840986128725
C           -1.66244780115634        0.96613574431113       -0.06212286278691
H           -5.54933244178423        0.93142795590940       -1.51675143604298
H           -5.65811235414438        0.28087509229691        0.12753744084460
H           -5.77210608727855       -0.78793614816880       -1.28072317587315
H           -3.57662354893049        0.47922459517124       -2.95272047829845
H           -2.23123873920875       -0.50257613809104       -2.37313531940522
H           -3.79101523532274       -1.26025138672383       -2.70384550537762
H           -5.23688156025367       -2.21807076545840        0.21455412657415
H           -4.39892235611014       -4.08694476232889        1.53805080871087
H           -2.00240175161475       -4.20303323596146        2.14333192673395
H           -0.46699087122454       -2.43687265580612        1.39903569217494
H           -0.05827643729926       -2.43679426104512       -1.06793380070989
H            2.34069639608509       -2.90651639307132       -1.35585934118343
H            4.63051577109138       -2.29700944969824       -0.99681480265899
H            5.63537571086051        1.47649873328278        0.74788625791684
H            3.30161229843098        2.05344084123050        0.90409644639074
H            2.14980063811590        2.61009404396138       -0.90481416649098
H            0.66544521811642        3.52564430597814       -0.92904531796921
H            1.80129171084869        3.75423136085594        0.39510166877766
H            0.48603670203759        3.02629613848086        2.36802325589868
H            0.19918477147063        1.29701029798804        2.55227618765840
H            1.84241686264992        1.89218625066737        2.35579396061697
H           -0.86007145942799        4.15401799951186        0.65576145070478
H           -3.25984141422135        4.43127878479367        0.27128202912882
H           -4.63347570168130        2.53423996526835       -0.42523084032929
