72
 energy: -118.723018585726 gnorm: 0.000052456262 xtb: 6.7.1 (edcfbbe)
C            9.18003524150579        3.55535019139641       -0.61412054235762
C            7.79791716024994        3.56736061463466       -0.64952252536009
C            7.08060677181864        2.39982003164370       -0.45271560371392
C            7.73598144439326        1.19656044723553       -0.20744865134349
C            9.14016141942127        1.19059688367896       -0.20068045695754
C            9.85015365549237        2.36152602466459       -0.39664518139013
O            9.86532036407456        0.04283980345029       -0.01731818590855
C            9.17085640781638       -1.12232765921587        0.17483380941304
C            9.91165980902695       -2.27508001388159        0.36430075651666
C            9.27361197404244       -3.48483845103675        0.59005184166609
C            7.89265750841955       -3.53105715424543        0.64009150613682
C            7.14459123125974       -2.38189501332206        0.44969952619070
C            7.76740496679233       -1.16309896567368        0.19652490181168
N            7.04703481088033        0.00784198154480       -0.00225521053164
C            5.63129352883439       -0.00936856582728        0.00414641157531
C            4.92764046739150       -0.67776773610299       -0.99871906237504
C            3.55506707092392       -0.69170508251525       -0.99315982571699
C            2.81352706089362       -0.03626657250647        0.01262665025918
C            1.38373412864454       -0.04498122205407        0.01435030694816
C            0.58068981025805        0.23960825622114        1.15482596016971
N           -0.70927123116825        0.23485541145485        1.14724608658642
C           -1.40054691487518       -0.04707632997017        0.01379014724036
C           -2.81782864474000       -0.04045685175809        0.01156303768674
C           -3.54222378409441        0.27399629599466        1.18093245488762
C           -4.91335201391248        0.28498270459395        1.17556510247893
C           -5.61387948880022       -0.01760569724887        0.00481969877125
N           -7.03307147158542       -0.00146936099323        0.00064174553422
C           -7.74954589756319       -1.18270905090516       -0.11466314873804
C           -7.12115358674788       -2.42259305435486       -0.19866134287232
C           -7.86597566567093       -3.58284535901255       -0.31572025124386
C           -9.24815257379406       -3.52973353531474       -0.34454963335882
C           -9.89118349945918       -2.30611441821558       -0.24241762731943
C           -9.15391146538072       -1.14139677679546       -0.12388606485091
O           -9.84961837899836        0.03238468511084       -0.00651518124951
C           -9.12657766628181        1.18929652897963        0.11302124362930
C           -9.83627556472484        2.37153810464930        0.22643669777659
C           -9.16460984551269        3.57950764756946        0.33047555132135
C           -7.78143612255842        3.59937990598586        0.30862173186868
C           -7.06411889494348        2.42143929216267        0.19668681991584
C           -7.72162073786007        1.19684625293354        0.11096508723671
C           -4.91284862004709       -0.33360123378753       -1.16203778874258
C           -3.54167877704636       -0.34536562213746       -1.16066141713786
N           -0.70833965796701       -0.33304716190453       -1.11822642456163
C            0.58162140860491       -0.33623920972298       -1.12509221976843
C            3.54847618016592        0.63095527092405        1.01550737015112
C            4.92102969567861        0.64346799115115        1.01261226991739
H            9.74052777864702        4.46446870964842       -0.76376865822026
H            7.26647443580068        4.48803046104715       -0.83446843773469
H            6.00317225451750        2.41467594970845       -0.49504255704430
H           10.92725534930424        2.31541938394744       -0.37968106788458
H           10.98704874080528       -2.20236611782361        0.33578547550989
H            9.85802035680978       -4.37959110380129        0.73470639150929
H            7.38624036895322       -4.46439231717116        0.83164716807048
H            6.06833122922690       -2.42317227740015        0.50328701887804
H            5.47597999468584       -1.18165589002468       -1.78199823734591
H            3.03613423502606       -1.22597552351804       -1.77412345524728
H            1.04241254508074        0.43508031392227        2.11487919774882
H           -2.98964930274682        0.49955072162762        2.07960345378956
H           -5.46717462773648        0.52095033906584        2.07340086300093
H           -6.04428429614504       -2.46865682926097       -0.16634056233576
H           -7.35751839923286       -4.53220822472749       -0.38179827914767
H           -9.82942688013623       -4.43331120625287       -0.43827092050363
H          -10.96692032454134       -2.23296750437237       -0.24874985492769
H          -10.91347439152230        2.32424811601458        0.22735795530608
H           -9.72446815142021        4.49691047490994        0.42017300166544
H           -7.25060128984694        4.53630963035807        0.37616689286321
H           -5.98632163351306        2.44178025707615        0.16979522721628
H           -5.46604564155540       -0.56033786407718       -2.06263494549138
H           -2.98855520235673       -0.58006457073651       -2.05664680792636
H            1.04398375081347       -0.53561903109323       -2.08401807394699
H            3.02415377865217        1.15464777004188        1.80002184393178
H            5.46438537244712        1.15754511850079        1.79273531039375
