72
 energy: -118.788802574408 gnorm: 0.000060466551 xtb: 6.7.1 (edcfbbe)
C            9.21044789081695        2.80140020382477        2.22176759847404
C            7.83208811019510        2.80490630471790        2.28341651793621
C            7.09503882672700        1.88214053660259        1.55645710755592
C            7.72561217429613        0.94672298561474        0.74589462320943
C            9.12664554681889        0.92922643748427        0.71835179591888
C            9.85662498155271        1.85268381297548        1.44287487647865
O            9.83820386676681        0.00166766707168       -0.00115498891790
C            9.12503109581019       -0.92447804268033       -0.72085900049945
C            9.85326539742464       -1.84800623599783       -1.44704933603345
C            9.20524566408441       -2.79526881100557       -2.22618635479694
C            7.82682090549158       -2.79716261126146       -2.28654337070587
C            7.09153211302744       -1.87434747784232       -1.55788234023198
C            7.72397247451966       -0.94055372328948       -0.74689469520799
N            7.01427142881606        0.00296170227257        0.00043874801455
C            5.60462365855473        0.00219572389395        0.00239107363625
C            4.90047310120156        1.09830624530806       -0.48925347935386
C            3.52098249144290        1.09857661699046       -0.47968177418144
C            2.81192764668899       -0.00023083138721        0.00554983692218
C            1.35150094964990       -0.00151891373641        0.00661196344527
C            0.59473714742133       -1.13971639467446       -0.28840087347128
N           -0.71973306275342       -1.14515256512833       -0.28464753142843
C           -1.34536191844089       -0.00324673938801        0.00642654903745
C           -2.80451106411718       -0.00369705387803        0.00518333118172
C           -3.50878967830244       -1.14785716646099       -0.37156939240975
C           -4.88707272580854       -1.14780198241028       -0.37643529429179
C           -5.58905676318633       -0.00390886572423        0.00081747874753
N           -6.99805385520736       -0.00345984474481       -0.00202372415714
C           -7.70739941040167        0.87528141303338       -0.82542280866250
C           -7.07467615634005        1.73488306255166       -1.71492464267261
C           -7.80958278020525        2.59306729563175       -2.51874977238520
C           -9.18814039873708        2.59889713364088       -2.45720248927983
C           -9.83650528662670        1.72196980253746       -1.60026078834740
C           -9.10851045910981        0.86262956274119       -0.79859078374925
O           -9.82302294450196        0.00055428561622       -0.00470906971136
C           -9.11245260137155       -0.86266963564480        0.79146789520991
C           -9.84438291226715       -1.71913211170678        1.59262170621790
C           -9.20011432597161       -2.59701205660061        2.45167971099939
C           -7.82166859784437       -2.59495487576163        2.51589496916811
C           -7.08282058960083       -1.73961899225659        1.71265206483066
C           -7.71143887675383       -0.87916663593438        0.82107790105716
C           -4.88827455324025        1.13987480642789        0.38077444227854
C           -3.51002279176185        1.14025165039217        0.38019539416057
N           -0.72120471090730        1.13925274437080        0.29832202714459
C            0.59325026035921        1.13551092401300        0.30230364411334
C            3.52393864357291       -1.09776744859646        0.48931643995456
C            4.90343032608094       -1.09506556893693        0.49574179466891
H            9.78842722917616        3.52000660927000        2.78095894476358
H            7.31447450074793        3.52325300825260        2.90042246645427
H            6.01868401636528        1.88558820714055        1.62815839184158
H           10.93258821173487        1.80848086364357        1.38812355675616
H           10.92933048422536       -1.80508222489670       -1.39332116353517
H            9.78185946725331       -3.51401143424745       -2.78660894991667
H            7.30780839599544       -3.51425323120777       -2.90383491893587
H            6.01509294467703       -1.87651628198460       -1.62843492421185
H            5.44358597957216        1.94482722863884       -0.88275255948796
H            2.98467224885166        1.94618854836055       -0.87991162903845
H            1.06949374464349       -2.07655268591409       -0.55507970138369
H           -2.95458936914105       -2.02466306335989       -0.66681271496828
H           -5.43417462643900       -2.02856341473110       -0.67934888594166
H           -5.99853848341128        1.72880851657632       -1.78740042683955
H           -7.29015000196813        3.25371431175539       -3.19576263845245
H           -9.76434166470203        3.26823538692953       -3.07625596379772
H          -10.91260544424637        1.68442103136867       -1.54265680472312
H          -10.92026083169421       -1.67857370847386        1.53297205782081
H           -9.77937746305512       -3.26404955092513        3.07035359438425
H           -7.30539079404593       -3.25626909785414        3.19466360589868
H           -6.00681617781829       -1.73640285552111        1.78723152969236
H           -5.43646800208768        2.02048246039972        0.68206769287677
H           -2.95686415792374        2.01711320821612        0.67728730748614
H            1.06675220545238        2.07283806992040        0.56948937308611
H            2.99000282392591       -1.94634728055768        0.89066488014235
H            5.44894173682504       -1.94073844526420        0.88775082458912
