72
 energy: -118.788681607216 gnorm: 0.000113802503 xtb: 6.7.1 (edcfbbe)
C            9.17548375618455       -3.46623231167110       -0.87164537138380
C            7.79699942484169       -3.49465055890570       -0.92292584612100
C            7.06084541765412       -2.35389770183668       -0.63995268363171
C            7.69281455152563       -1.16751825301674       -0.28977287909338
C            9.09387939495072       -1.14079849585672       -0.27342240839632
C            9.82284370877316       -2.28104564599683       -0.55422636682918
O            9.80608882200458        0.00044525980585        0.00037303834132
C            9.09348407675898        1.14149969506264        0.27392345472040
C            9.82204457209120        2.28198455485192        0.55481462243659
C            9.17426202968724        3.46699680703921        0.87202682473326
C            7.79575966470747        3.49500063137961        0.92302469565865
C            7.06001115247758        2.35400714315840        0.63996509566643
C            7.69241029120105        1.16780035567097        0.28996803283206
N            6.98251668121836        0.00002587559840        0.00006804928224
C            5.57218860827992       -0.00014113959285       -0.00004178044901
C            4.86992032405304       -0.78342980022566        0.91178033144671
C            3.49018826363149       -0.78290194432666        0.90970712995684
C            2.77928742938817       -0.00053277342283       -0.00031513021956
C            1.31841799080661       -0.00060899740750       -0.00038626527384
C            0.56027359265590        0.07561488672943       -1.17306194000432
N           -0.75415892963789        0.08299847497778       -1.17599703536881
C           -1.37931225735813       -0.00100060081995       -0.00035762488737
C           -2.83858607327504       -0.00073448806873       -0.00028166474641
C           -3.54344813289253        0.08827322157198       -1.20125025430067
C           -4.92179861071904        0.08854154092868       -1.20174951534691
C           -5.62261277223684       -0.00014461392758       -0.00003713731163
N           -7.03206299841604        0.00016160523819        0.00016017328263
C           -7.74274195524268        1.10437654433508       -0.47730306328875
C           -7.11085922371977        2.26210271826371       -0.91388811228537
C           -7.84712246983868        3.34148667515662       -1.37825640910287
C           -9.22576112173185        3.28750335040747       -1.40347592497719
C           -9.87302647228982        2.15167188455969       -0.93987892483458
C           -9.14382559576228        1.07377048437116       -0.47371166788122
O           -9.85655337792594        0.00064643328510        0.00032822536064
C           -9.14413429562287       -1.07275238660406        0.47421084280350
C           -9.87365235001720       -2.15044442181349        0.94036683598171
C           -9.22672536016721       -3.28652633932163        1.40382602345133
C           -7.84810974665578       -3.34099616518940        1.37840269704970
C           -7.11152937411384       -2.26183759813283        0.91400486851565
C           -7.74306186829490       -1.10383595499064        0.47764829533275
C           -4.92161864905097       -0.08896944184415        1.20155577770968
C           -3.54327796325414       -0.08947771534945        1.20080084170496
N           -0.75413075847585       -0.08466814103390        1.17526747110194
C            0.56029141940402       -0.07681891985118        1.17230404158461
C            3.49014521052080        0.78197468013274       -0.91023948393795
C            4.86987521756599        0.78289976646788       -0.91203447274490
H            9.75274067101185       -4.35162118085856       -1.08616854217297
H            7.27851420723906       -4.40355180728393       -1.18697831811529
H            5.98422278729649       -2.38638934813111       -0.70032935979860
H           10.89889576780806       -2.21882397271337       -0.52425317848589
H           10.89812096546028        2.22008444214834        0.52508015287433
H            9.75120637210056        4.35257393876467        1.08661476069955
H            7.27694553716633        4.40376174791798        1.18691617435303
H            5.98336614231064        2.38617641961169        0.70012087992253
H            5.41419690915204       -1.38915239230873        1.62123750642610
H            2.95619475718707       -1.40627948080386        1.61138113189557
H            1.03332168926053        0.11357729920186       -2.14711489661337
H           -2.98975794251450        0.14865929321175       -2.12474268840891
H           -5.46991871479161        0.14934768540771       -2.13055489580756
H           -6.03450000236448        2.32509855028716       -0.88328070047242
H           -7.32875140348174        4.22571768425069       -1.71596067444256
H           -9.80302395804379        4.12240124642601       -1.76811803717598
H          -10.94909966106542        2.08394384876341       -0.92590854012828
H          -10.94970346392309       -2.08233341710597        0.92654939321465
H           -9.80423473441509       -4.12126479365871        1.76844024388292
H           -7.33000968611594       -4.22544686069614        1.71594595637304
H           -6.03519569044100       -2.32521754260306        0.88322863688552
H           -5.46959906796210       -0.14957825208724        2.13046119352618
H           -2.98945161030413       -0.15009961852728        2.12419675357093
H            1.03336756622602       -0.11532048525667        2.14637803911616
H            2.95611590844111        1.40520383248610       -1.61202002450234
H            5.41411541112658        1.38871998376970       -1.62143437316539
