  92
       -148.52309985
 O         -8.0387057049       -3.5463331194       -0.3111838755
 C         -7.3532439159       -2.5527212066       -0.1382272563
 C         -7.9475012092       -1.2360062218        0.1707363697
 C         -9.3335743014       -1.0980960814        0.1507498914
 C         -9.9239225116        0.1197432084        0.4331143136
 C         -9.1334956871        1.2145660272        0.7510727211
 C         -7.7569440432        1.0858525791        0.7873545033
 C         -7.1503467161       -0.1318520351        0.4930245638
 C         -5.6724722860       -0.2315439344        0.5687237565
 O         -5.0034068439        0.6542550894        1.0656900559
 C         -5.0940040193       -1.4771188555        0.0299401094
 C         -5.8798907130       -2.5872670988       -0.2617894620
 C         -5.2927902580       -3.7905251614       -0.7002515787
 C         -3.9371658646       -3.9222286120       -0.8225565908
 C         -3.1105230169       -2.8203676855       -0.5418384217
 N         -1.7738582390       -2.9562569191       -0.5239768230
 C         -1.0174064793       -1.9120806532       -0.2784872800
 C          0.4069430825       -2.1518452538       -0.0847010177
 C          1.0165941593       -3.2130128554       -0.7580376150
 C          2.3720754774       -3.4267747130       -0.6601095524
 C          3.1645391297       -2.5795908441        0.1192198085
 N          4.5462865633       -2.7421146239        0.1714751530
 C          5.1016369587       -4.0280214840        0.1534668580
 C          4.4839726825       -5.0637186777        0.8539841826
 C          5.0272966657       -6.3334441858        0.8395378734
 C          6.1935148889       -6.5892404873        0.1370485265
 C          6.8116793284       -5.5629954145       -0.5584111160
 C          6.2717444319       -4.2913249554       -0.5571528644
 C          5.3781562701       -1.6157735141        0.1423734896
 C          6.5776212810       -1.6041928928        0.8527142438
 C          7.4129004594       -0.5055302687        0.7873871716
 C          7.0658368374        0.5949898658        0.0212072024
 C          5.8679398173        0.5945241026       -0.6749162613
 C          5.0268193015       -0.4990809837       -0.6162292824
 C          2.5467743140       -1.5569771159        0.8459243318
 C          1.1894891768       -1.3528416605        0.7541387421
 C         -1.6149187163       -0.5984690990       -0.2423839525
 C         -0.8587633672        0.6446539729       -0.3309084229
 C          0.3505688534        0.7562332275       -1.0215774505
 C          1.0671257754        1.9307015159       -0.9857354577
 C          0.5877476888        3.0361895313       -0.2770093593
 N          1.3506496836        4.1995671207       -0.1937951545
 C          0.7235407338        5.4511101213       -0.2210241799
 C         -0.3719233453        5.6644620534       -1.0573343305
 C         -0.9952959839        6.8965501186       -1.0860273806
 C         -0.5348569208        7.9343833549       -0.2923729578
 C          0.5545055180        7.7279325381        0.5379488667
 C          1.1794586938        6.4966913075        0.5805855069
 C          2.7320370403        4.1064151285        0.0107430431
 C          3.2601397709        3.0904622543        0.8081436908
 C          4.6202344842        3.0201873262        1.0358758173
 C          5.4740791847        3.9551452106        0.4733217436
 C          4.9568616236        4.9582274303       -0.3297429569
 C          3.5974942044        5.0360855419       -0.5644782097
 C         -0.6611038303        2.9509376581        0.3441840973
 C         -1.3712551911        1.7730189614        0.3159852150
 N         -2.9151069970       -0.4829967136       -0.1360693705
 C         -3.6940981781       -1.5685594094       -0.1822424872
 H         -9.9288750835       -1.9659247874       -0.0917803745
 H        -10.9990684410        0.2160489884        0.4088373814
 H         -9.5919711852        2.1664465633        0.9741285815
 H         -7.1233440806        1.9227075440        1.0419787767
 H         -5.9559894913       -4.6170559419       -0.9083463836
 H         -3.4776869936       -4.8569971591       -1.1039495086
 H          0.4054839589       -3.8445320820       -1.3837675352
 H          2.8371614994       -4.2340341592       -1.2062547523
 H          3.5803816004       -4.8624744279        1.4108433758
 H          4.5406507940       -7.1260773466        1.3879746219
 H          6.6177362120       -7.5813719072        0.1317008310
 H          7.7175964543       -5.7548100027       -1.1140255470
 H          6.7490957507       -3.4958202413       -1.1105894820
 H          6.8487708562       -2.4619164433        1.4505078705
 H          8.3398977366       -0.5089329093        1.3414371319
 H          7.7242742376        1.4482272869       -0.0342294335
 H          5.5902647061        1.4491706813       -1.2735603119
 H          4.0984628752       -0.5019568751       -1.1680762888
 H          3.1491769788       -0.9272657389        1.4837623797
 H          0.7249868947       -0.5802475935        1.3473038902
 H          0.7209080163       -0.0750182865       -1.6020341579
 H          2.0088780443        2.0089740215       -1.5089461429
 H         -0.7267640417        4.8584228154       -1.6825848938
 H         -1.8421225950        7.0485907309       -1.7385999479
 H         -1.0220870746        8.8968686372       -0.3199982470
 H          0.9156940994        8.5289066222        1.1657483019
 H          2.0203207611        6.3350319808        1.2389126450
 H          2.5950881233        2.3669685543        1.2559277612
 H          5.0161146065        2.2349569478        1.6627090083
 H          6.5354389082        3.9016252654        0.6607321403
 H          5.6164237066        5.6852383210       -0.7800595894
 H          3.1953922733        5.8183476609       -1.1913671545
 H         -1.0521499248        3.8095585214        0.8691876976
 H         -2.3254116423        1.6882546128        0.8122436972
