  92
       -148.52309985
 O         -8.0387057049       -3.5463331194       -0.3111838755
 C         -7.3532439159       -2.5527212066       -0.1382272563
 C         -7.9475012092       -1.2360062218        0.1707363697
 C         -9.3335743014       -1.0980960814        0.1507498914
 C         -9.9239225116        0.1197432084        0.4331143136
 C         -9.1334956871        1.2145660272        0.7510727211
 C         -7.7569440432        1.0858525791        0.7873545033
 C         -7.1503467161       -0.1318520351        0.4930245638
 C         -5.6724722860       -0.2315439344        0.5687237565
 O         -5.0034068439        0.6542550894        1.0656900559
 C         -5.0940040193       -1.4771188555        0.0299401094
 C         -5.8798907130       -2.5872670988       -0.2617894620
 C         -5.2927902580       -3.7905251614       -0.7002515787
 C         -3.9371658646       -3.9222286120       -0.8225565908
 C         -3.1105230169       -2.8203676855       -0.5418384217
 N         -1.7738582390       -2.9562569191       -0.5239768230
 C         -1.0174064793       -1.9120806532       -0.2784872800
 C          0.4069430825       -2.1518452538       -0.0847010177
 C          1.0165941593       -3.2130128554       -0.7580376150
 C          2.3720754774       -3.4267747130       -0.6601095524
 C          3.1645391297       -2.5795908441        0.1192198085
 N          4.5462865633       -2.7421146239        0.1714751530
 C          5.1016369587       -4.0280214840        0.1534668580
 C          4.4839726825       -5.0637186777        0.8539841826
 C          5.0272966657       -6.3334441858        0.8395378734
 C          6.1935148889       -6.5892404873        0.1370485265
 C          6.8116793284       -5.5629954145       -0.5584111160
 C          6.2717444319       -4.2913249554       -0.5571528644
 C          5.3781562701       -1.6157735141        0.1423734896
 C          6.5776212810       -1.6041928928        0.8527142438
 C          7.4129004594       -0.5055302687        0.7873871716
 C          7.0658368374        0.5949898658        0.0212072024
 C          5.8679398173        0.5945241026       -0.6749162613
 C          5.0268193015       -0.4990809837       -0.6162292824
 C          2.5467743140       -1.5569771159        0.8459243318
 C          1.1894891768       -1.3528416605        0.7541387421
 C         -1.6149187163       -0.5984690990       -0.2423839525
 C         -0.8587633672        0.6446539729       -0.3309084229
 C          0.3505688534        0.7562332275       -1.0215774505
 C          1.0671257754        1.9307015159       -0.9857354577
 C          0.5877476888        3.0361895313       -0.2770093593
 N          1.3506496836        4.1995671207       -0.1937951545
 C          0.7235407338        5.4511101213       -0.2210241799
 C         -0.3719233453        5.6644620534       -1.0573343305
 C         -0.9952959839        6.8965501186       -1.0860273806
 C         -0.5348569208        7.9343833549       -0.2923729578
 C          0.5545055180        7.7279325381        0.5379488667
 C          1.1794586938        6.4966913075        0.5805855069
 C          2.7320370403        4.1064151285        0.0107430431
 C          3.2601397709        3.0904622543        0.8081436908
 C          4.6202344842        3.0201873262        1.0358758173
 C          5.4740791847        3.9551452106        0.4733217436
 C          4.9568616236        4.9582274303       -0.3297429569
 C          3.5974942044        5.0360855419       -0.5644782097
 C         -0.6611038303        2.9509376581        0.3441840973
 C         -1.3712551911        1.7730189614        0.3159852150
 N         -2.9151069970       -0.4829967136       -0.1360693705
 C         -3.6940981781       -1.5685594094       -0.1822424872
 H         -9.9288750835       -1.9659247874       -0.0917803745
 H        -10.9990684410        0.2160489884        0.4088373814
 H         -9.5919711852        2.1664465633        0.9741285815
 H         -7.1233440806        1.9227075440        1.0419787767
 H         -5.9559894913       -4.6170559419       -0.9083463836
 H         -3.4776869936       -4.8569971591       -1.1039495086
 H          0.4054839589       -3.8445320820       -1.3837675352
 H          2.8371614994       -4.2340341592       -1.2062547523
 H          3.5803816004       -4.8624744279        1.4108433758
 H          4.5406507940       -7.1260773466        1.3879746219
 H          6.6177362120       -7.5813719072        0.1317008310
 H          7.7175964543       -5.7548100027       -1.1140255470
 H          6.7490957507       -3.4958202413       -1.1105894820
 H          6.8487708562       -2.4619164433        1.4505078705
 H          8.3398977366       -0.5089329093        1.3414371319
 H          7.7242742376        1.4482272869       -0.0342294335
 H          5.5902647061        1.4491706813       -1.2735603119
 H          4.0984628752       -0.5019568751       -1.1680762888
 H          3.1491769788       -0.9272657389        1.4837623797
 H          0.7249868947       -0.5802475935        1.3473038902
 H          0.7209080163       -0.0750182865       -1.6020341579
 H          2.0088780443        2.0089740215       -1.5089461429
 H         -0.7267640417        4.8584228154       -1.6825848938
 H         -1.8421225950        7.0485907309       -1.7385999479
 H         -1.0220870746        8.8968686372       -0.3199982470
 H          0.9156940994        8.5289066222        1.1657483019
 H          2.0203207611        6.3350319808        1.2389126450
 H          2.5950881233        2.3669685543        1.2559277612
 H          5.0161146065        2.2349569478        1.6627090083
 H          6.5354389082        3.9016252654        0.6607321403
 H          5.6164237066        5.6852383210       -0.7800595894
 H          3.1953922733        5.8183476609       -1.1913671545
 H         -1.0521499248        3.8095585214        0.8691876976
 H         -2.3254116423        1.6882546128        0.8122436972
  92
       -148.52307941
 O         -8.0402594231       -3.5160895331       -0.3088050307
 C         -7.3475076753       -2.5297356420       -0.1224778788
 C         -7.9313665169       -1.2184204573        0.2270341384
 C         -9.3170829651       -1.0763958963        0.2372960179
 C         -9.8983413246        0.1350649637        0.5624954054
 C         -9.0988005452        1.2191614824        0.8936888270
 C         -7.7221990434        1.0865516855        0.8982479119
 C         -7.1248581652       -0.1243518673        0.5603563401
 C         -5.6459429842       -0.2272311951        0.6007655810
 O         -4.9641232109        0.6519245524        1.0928987325
 C         -5.0815679965       -1.4665951293        0.0341691784
 C         -5.8761008413       -2.5685820077       -0.2655668325
 C         -5.2995400767       -3.7672414641       -0.7300206086
 C         -3.9457825322       -3.9040576806       -0.8683030361
 C         -3.1106168761       -2.8110906181       -0.5785597386
 N         -1.7745106586       -2.9539578444       -0.5696134705
 C         -1.0116616270       -1.9181991832       -0.3094449606
 C          0.4101646645       -2.1692674905       -0.1135389417
 C          1.0251976231       -3.2085237943       -0.8150379921
 C          2.3791328790       -3.4287249198       -0.7081694795
 C          3.1633884242       -2.6148797062        0.1143058557
 N          4.5423420677       -2.7834123043        0.1831111338
 C          5.1063648164       -4.0622800060        0.0885117653
 C          4.4860290872       -5.1492696554        0.7034320766
 C          5.0423739405       -6.4102102012        0.6106359258
 C          6.2242095685       -6.6061853289       -0.0851621129
 C          6.8458557481       -5.5284687221       -0.6942891946
 C          6.2929806517       -4.2649913590       -0.6147322153
 C          5.3753892013       -1.6585133065        0.2550282865
 C          6.5391971020       -1.6903583290        1.0214571982
 C          7.3733392756       -0.5895976581        1.0625850322
 C          7.0612673048        0.5536716014        0.3454852617
 C          5.9014928368        0.5930357770       -0.4115196699
 C          5.0603793858       -0.5011797657       -0.4566294298
 C          2.5381298366       -1.6156018944        0.8676277292
 C          1.1839722998       -1.4003278447        0.7605969040
 C         -1.6004913054       -0.6010625600       -0.2567274571
 C         -0.8426236466        0.6411404969       -0.3420077682
 C          0.3813617213        0.7492956030       -1.0070502911
 C          1.0891129105        1.9293783434       -0.9762653976
 C          0.5847390957        3.0455245124       -0.3028743381
 N          1.3339984928        4.2190048560       -0.2324477419
 C          0.6968512945        5.4625003757       -0.3166149378
 C         -0.3822980298        5.6361128105       -1.1830934407
 C         -1.0145669890        6.8609211908       -1.2696495180
 C         -0.5792929406        7.9308932079       -0.5048348946
 C          0.4933022109        7.7638318286        0.3556265678
 C          1.1267412465        6.5402837191        0.4563975055
 C          2.7097167852        4.1446332539        0.0136096036
 C          3.2216189914        3.1598027165        0.8590353260
 C          4.5749201165        3.1085846798        1.1285605164
 C          5.4381228323        4.0311051563        0.5595927725
 C          4.9372769320        5.0027914866       -0.2912786501
 C          3.5848273228        5.0618887155       -0.5672526391
 C         -0.6756707900        2.9614854615        0.2946283841
 C         -1.3750690767        1.7772179070        0.2755564194
 N         -2.8999529522       -0.4811134484       -0.1438175253
 C         -3.6847056955       -1.5615299428       -0.1959459635
 H         -9.9195700235       -1.9361379592       -0.0160825786
 H        -10.9734697739        0.2346456883        0.5608200290
 H         -9.5498960064        2.1659098270        1.1508450602
 H         -7.0813242262        1.9153421320        1.1606852885
 H         -5.9688766016       -4.5874920257       -0.9432021381
 H         -3.4942776639       -4.8376485793       -1.1660537025
 H          0.4207999777       -3.8167278415       -1.4698092360
 H          2.8489714872       -4.2159673075       -1.2788783348
 H          3.5701452039       -4.9952884321        1.2550941808
 H          4.5536840607       -7.2438218862        1.0926915019
 H          6.6577791893       -7.5921228999       -0.1523249136
 H          7.7642523222       -5.6729723453       -1.2436968041
 H          6.7735913382       -3.4277911177       -1.0993621005
 H          6.7826793754       -2.5825025332        1.5796301759
 H          8.2713359686       -0.6250344174        1.6614334141
 H          7.7182778650        1.4092326518        0.3744667147
 H          5.6535226187        1.4795075025       -0.9758005613
 H          4.1598948465       -0.4719964274       -1.0522388999
 H          3.1324397288       -1.0121792423        1.5376059045
 H          0.7137008113       -0.6422922326        1.3681908446
 H          0.7699176131       -0.0877139498       -1.5666827533
 H          2.0424082647        2.0044191374       -1.4786080042
 H         -0.7170630719        4.8050406098       -1.7863266665
 H         -1.8484468586        6.9821240062       -1.9450532413
 H         -1.0728971667        8.8877211734       -0.5782958733
 H          0.8351710041        8.5902659489        0.9609594144
 H          1.9539352520        6.4099033253        1.1384641013
 H          2.5491247620        2.4458252062        1.3110354161
 H          4.9574478422        2.3476234151        1.7925695888
 H          6.4941308943        3.9925589703        0.7785513990
 H          5.6047115688        5.7191908648       -0.7471298888
 H          3.1956049655        5.8190609291       -1.2319953883
 H         -1.0848064598        3.8273313442        0.7933385246
 H         -2.3375551928        1.6934463709        0.7556949858
  92
       -148.52307513
 O         -8.0017880079       -3.5269338032       -0.4201183833
 C         -7.3150329344       -2.5459576772       -0.1889666060
 C         -7.9058016909       -1.2608102950        0.2373323778
 C         -9.2926074120       -1.1356309079        0.2798967766
 C         -9.8806051370        0.0524534098        0.6719958098
 C         -9.0865430414        1.1299191317        1.0368104214
 C         -7.7087943999        1.0130275608        1.0105555947
 C         -7.1049236204       -0.1746263983        0.6077610685
 C         -5.6245338655       -0.2639993323        0.6216933367
 O         -4.9442275965        0.5986431729        1.1439127138
 C         -5.0564352905       -1.4708522744       -0.0077156371
 C         -5.8453024617       -2.5641142858       -0.3512123456
 C         -5.2647366462       -3.7335784548       -0.8809036158
 C         -3.9116446200       -3.8530623169       -1.0390413902
 C         -3.0817193800       -2.7697891061       -0.7015953788
 N         -1.7453374139       -2.9042721271       -0.7009400412
 C         -0.9868681081       -1.8754012852       -0.4020977752
 C          0.4323790424       -2.1319116297       -0.1977119480
 C          1.0431483148       -3.1886260581       -0.8775030344
 C          2.3894081801       -3.4353362670       -0.7376601667
 C          3.1716885878       -2.6281189749        0.0928801308
 N          4.5434925465       -2.8346635565        0.2066948701
 C          5.0657285436       -4.1337534226        0.2004173548
 C          4.3748792774       -5.1694536455        0.8290165943
 C          4.8906944285       -6.4507940919        0.8270160078
 C          6.1016415985       -6.7187538193        0.2098243961
 C          6.7927094816       -5.6925750440       -0.4133244599
 C          6.2808707370       -4.4094421933       -0.4251023589
 C          5.4043062499       -1.7308526274        0.2671208663
 C          6.5395495053       -1.7601079845        1.0756334561
 C          7.3972658716       -0.6773824857        1.1069581681
 C          7.1376447536        0.4457659297        0.3385499998
 C          6.0065745278        0.4825918695       -0.4608696542
 C          5.1420552379       -0.5937476127       -0.4966222689
 C          2.5529567799       -1.6011081212        0.8126968837
 C          1.2050611704       -1.3630993095        0.6776875226
 C         -1.5852789066       -0.5649770207       -0.3017016947
 C         -0.8383755200        0.6845827598       -0.3625304296
 C          0.3637360901        0.8217568379       -1.0610583815
 C          1.0581912738        2.0093447178       -1.0269085612
 C          0.5666636273        3.1027818481       -0.3070805814
 N          1.3011216423        4.2837862003       -0.2398616907
 C          0.6483873342        5.5225515259       -0.2230475464
 C         -0.4887346354        5.7274153368       -1.0038818513
 C         -1.1324430341        6.9494507547       -0.9869322689
 C         -0.6513054497        7.9854134819       -0.2030471200
 C          0.4800605096        7.7875972307        0.5715027243
 C          1.1258113357        6.5664123224        0.5685298189
 C          2.6946880168        4.2270637268       -0.1125351306
 C          3.2913544148        3.2386869537        0.6700634659
 C          4.6639391932        3.2027902062        0.8178596106
 C          5.4614751447        4.1426742049        0.1849828577
 C          4.8745840681        5.1211616502       -0.6007570031
 C          3.5020561690        5.1669765164       -0.7518536942
 C         -0.6678473691        2.9857792660        0.3379713281
 C         -1.3582667855        1.7965402814        0.3068893555
 N         -2.8839077449       -0.4602825120       -0.1682902586
 C         -3.6615755683       -1.5432998736       -0.2568333728
 H         -9.8903186671       -1.9899260826       -0.0017185058
 H        -10.9565898712        0.1393062039        0.6956997408
 H         -9.5429927617        2.0589396496        1.3444432166
 H         -7.0719615923        1.8361092233        1.2994743976
 H         -5.9306339757       -4.5468115960       -1.1289279149
 H         -3.4564597330       -4.7667370601       -1.3885477975
 H          0.4403269060       -3.7937146665       -1.5365008662
 H          2.8552808755       -4.2415213539       -1.2847895992
 H          3.4362644208       -4.9598243008        1.3208475530
 H          4.3466809704       -7.2433224245        1.3189941420
 H          6.5040317189       -7.7200556922        0.2146404185
 H          7.7346262406       -5.8932199802       -0.9018897693
 H          6.8163860592       -3.6136281309       -0.9217235719
 H          6.7412715462       -2.6352702907        1.6757853057
 H          8.2725916813       -0.7105164717        1.7385322036
 H          7.8133039048        1.2870568251        0.3610786754
 H          5.7984285857        1.3526037012       -1.0657021080
 H          4.2635830498       -0.5658848673       -1.1243180441
 H          3.1460322305       -0.9986395788        1.4846914827
 H          0.7386465698       -0.5898838213        1.2684341385
 H          0.7440574481        0.0007635201       -1.6497832065
 H          1.9907080589        2.1078215900       -1.5629561005
 H         -0.8593684414        4.9238780092       -1.6231646625
 H         -2.0111841597        7.0955158106       -1.5973664004
 H         -1.1549019562        8.9398429140       -0.1948927054
 H          0.8585053549        8.5872981784        1.1908093697
 H          2.0011009346        6.4112249058        1.1821692040
 H          2.6704485548        2.5090123534        1.1685192014
 H          5.1126585262        2.4393122926        1.4357753212
 H          6.5337293691        4.1129947927        0.3044302727
 H          5.4896507564        5.8530390445       -1.1031577671
 H          3.0445274525        5.9300032928       -1.3643756737
 H         -1.0655895883        3.8307877763        0.8797165739
 H         -2.3026252868        1.6899562648        0.8175247653
  92
       -148.52295208
 O         -8.0726419584       -3.5715305847       -0.1525910349
 C         -7.3876178175       -2.5677612556       -0.0537060049
 C         -7.9813710732       -1.2317528699        0.1588040886
 C         -9.3662569289       -1.0907756593        0.1091693136
 C         -9.9548147687        0.1455688003        0.2998267947
 C         -9.1641629808        1.2562108774        0.5565051628
 C         -7.7889783515        1.1250639385        0.6238191596
 C         -7.1840585312       -0.1115687555        0.4195969367
 C         -5.7082032112       -0.2132206153        0.5253017997
 O         -5.0426932576        0.6923353723        0.9897861581
 C         -5.1282459241       -1.4857211003        0.0549413400
 C         -5.9141992367       -2.6096360135       -0.1771262446
 C         -5.3271690917       -3.8347986651       -0.5499079812
 C         -3.9715478550       -3.9720778278       -0.6658096107
 C         -3.1448004757       -2.8570537084       -0.4429291856
 N         -1.8076828991       -2.9934104453       -0.4201210288
 C         -1.0523181033       -1.9391875757       -0.2210824073
 C          0.3753315337       -2.1635356631       -0.0297727194
 C          0.9949691443       -3.2197596351       -0.7009665430
 C          2.3569607296       -3.4009739480       -0.6269685941
 C          3.1438877279       -2.5241567680        0.1244411155
 N          4.5315183272       -2.6418108365        0.1373871088
 C          5.1259070802       -3.9100038866        0.1161017127
 C          4.5667540280       -4.9521380811        0.8551385920
 C          5.1474277174       -6.2053284007        0.8393413417
 C          6.2936397744       -6.4376025652        0.0967638710
 C          6.8530765636       -5.4050281144       -0.6380732502
 C          6.2751063324       -4.1502660427       -0.6357096640
 C          5.3238355430       -1.4904493954        0.0485706001
 C          6.5545559838       -1.4287752390        0.7004171149
 C          7.3558918236       -0.3112013146        0.5669733649
 C          6.9424388488        0.7598229626       -0.2075855500
 C          5.7096283940        0.7136849209       -0.8376916227
 C          4.9032143095       -0.4002316156       -0.7135518159
 C          2.5162999697       -1.5136749511        0.8593744086
 C          1.1530415134       -1.3424544927        0.7921127436
 C         -1.6480347941       -0.6243591643       -0.2393533382
 C         -0.8816852421        0.6106420994       -0.3552739295
 C          0.3387027782        0.6935991256       -1.0309296819
 C          1.0803520546        1.8520250521       -0.9870645294
 C          0.6136744287        2.9697884274       -0.2897409298
 N          1.4120393455        4.1081385434       -0.1791451805
 C          0.8258859035        5.3782065810       -0.2370874670
 C         -0.2195092872        5.6201675399       -1.1281647323
 C         -0.8032665753        6.8701762724       -1.1926247285
 C         -0.3523874914        7.8977488424       -0.3801397152
 C          0.6853403187        7.6620929938        0.5066058000
 C          1.2697642264        6.4127790733        0.5853554871
 C          2.7721697359        3.9677087470        0.1175197815
 C          3.2139643419        2.9258610265        0.9341453803
 C          4.5506015614        2.8179819562        1.2629159243
 C          5.4664113431        3.7423590699        0.7876804962
 C          5.0373220113        4.7657383228       -0.0410459815
 C          3.7029361729        4.8789305784       -0.3805512232
 C         -0.6530174278        2.9203750349        0.2975374675
 C         -1.3865179929        1.7566368639        0.2656944615
 N         -2.9484647023       -0.5016148570       -0.1475013920
 C         -3.7278729766       -1.5885658231       -0.1478704140
 H         -9.9619750428       -1.9705326643       -0.0842574627
 H        -11.0289807827        0.2440969159        0.2520982953
 H         -9.6213429292        2.2227952410        0.7073912739
 H         -7.1554888644        1.9748355983        0.8317638163
 H         -5.9901765188       -4.6714774576       -0.7133940054
 H         -3.5115895955       -4.9202795465       -0.8971283567
 H          0.3868209755       -3.8708947951       -1.3093029815
 H          2.8309032729       -4.2026088008       -1.1738013475
 H          3.6782237526       -4.7687170790        1.4415055342
 H          4.7060696323       -7.0031943646        1.4178538847
 H          6.7475055219       -7.4166389748        0.0898638854
 H          7.7421759734       -5.5792990553       -1.2257336535
 H          6.7066078566       -3.3502321689       -1.2192094260
 H          6.8776723077       -2.2640627483        1.3041944363
 H          8.3091967938       -0.2773935531        1.0733666506
 H          7.5754276931        1.6261205927       -0.3206735982
 H          5.3794728709        1.5477012768       -1.4388652724
 H          3.9488199066       -0.4403893409       -1.2173368319
 H          3.1166162842       -0.8643924100        1.4791946131
 H          0.6804207170       -0.5767938942        1.3880546804
 H          0.6988315439       -0.1474498965       -1.6035832456
 H          2.0352270971        1.9069131945       -1.4888249160
 H         -0.5661440307        4.8216647776       -1.7676255692
 H         -1.6108105314        7.0447021052       -1.8879836983
 H         -0.8076038451        8.8745793230       -0.4364505008
 H          1.0376503510        8.4545018032        1.1502496836
 H          2.0693574649        6.2294166641        1.2878661050
 H          2.4997933788        2.2133123056        1.3193169856
 H          4.8792408801        2.0133686358        1.9039952805
 H          6.5069644263        3.6637179919        1.0617916160
 H          5.7467093771        5.4820395957       -0.4286227903
 H          3.3702374817        5.6771718269       -1.0276987572
 H         -1.0371644552        3.7925946404        0.8049062485
 H         -2.3511376058        1.6949012349        0.7449681246
  92
       -148.52284607
 O         -8.0366669599       -3.4805730777       -0.3652201920
 C         -7.3381462766       -2.5082203121       -0.1327198638
 C         -7.9125712647       -1.2207812686        0.3085599792
 C         -9.2975329637       -1.0885890248        0.3807904904
 C         -9.8711953565        0.1007378354        0.7900196107
 C         -9.0642534501        1.1729662594        1.1417861905
 C         -7.6880841061        1.0495814435        1.0847359378
 C         -7.0986498574       -0.1396089085        0.6651287534
 C         -5.6188484645       -0.2346868976        0.6471202963
 O         -4.9242598159        0.6339266970        1.1403990971
 C         -5.0680979760       -1.4532754832        0.0256306361
 C         -5.8696884996       -2.5417160336       -0.3038421056
 C         -5.3034134715       -3.7216938865       -0.8253898245
 C         -3.9518097099       -3.8584256096       -0.9842608470
 C         -3.1092179075       -2.7817505040       -0.6583825720
 N         -1.7740810282       -2.9314918211       -0.6543570884
 C         -1.0056813674       -1.9100125114       -0.3582087846
 C          0.4115477010       -2.1759448262       -0.1530435369
 C          1.0355160430       -3.1871571783       -0.8865011528
 C          2.3871002211       -3.4149880613       -0.7663525912
 C          3.1586150816       -2.6421811348        0.1065819265
 N          4.5345926457       -2.8188875964        0.1939621427
 C          5.1022000353       -4.0888332924        0.0254999207
 C          4.4747137145       -5.2152317567        0.5562649687
 C          5.0348250633       -6.4665831209        0.3869431983
 C          6.2274281953       -6.6140606533       -0.3024368486
 C          6.8571676700       -5.4969624539       -0.8262983156
 C          6.3009451673       -4.2421434451       -0.6695568115
 C          5.3678284076       -1.7046513954        0.3681735903
 C          6.5033188129       -1.7925296192        1.1716085785
 C          7.3336638844       -0.6982433524        1.3212055860
 C          7.0463863874        0.4932093138        0.6755968264
 C          5.9173824861        0.5861273324       -0.1221456388
 C          5.0799089120       -0.5011765696       -0.2748515695
 C          2.5220742485       -1.6739740012        0.8910281793
 C          1.1718521982       -1.4460337464        0.7651470646
 C         -1.5864223239       -0.5903094721       -0.2748967473
 C         -0.8255237758        0.6505548019       -0.3492129457
 C          0.4141691328        0.7537137365       -0.9855479661
 C          1.1173043177        1.9367301750       -0.9546183938
 C          0.5896271336        3.0624054151       -0.3170655700
 N          1.3273498442        4.2452213571       -0.2571752478
 C          0.6855866955        5.4750155675       -0.4404548939
 C         -0.3553659824        5.5863053945       -1.3622889107
 C         -0.9904525962        6.7980138313       -1.5517350942
 C         -0.5960052407        7.9163824647       -0.8357224391
 C          0.4365927853        7.8106084095        0.0816680113
 C          1.0719777291        6.6010072597        0.2855406190
 C          2.6902600557        4.1895195991        0.0516552837
 C          3.1676258249        3.2326030606        0.9481892136
 C          4.5076861907        3.1954020928        1.2790472208
 C          5.3926288849        4.1049034019        0.7224420408
 C          4.9266778168        5.0485447607       -0.1783804236
 C          3.5879214277        5.0927600359       -0.5168896938
 C         -0.6832781355        2.9821968723        0.2534530954
 C         -1.3750472862        1.7934144277        0.2414089225
 N         -2.8849555918       -0.4691097384       -0.1530615361
 C         -3.6749178051       -1.5435408894       -0.2278898094
 H         -9.9054435748       -1.9387425568        0.1086997920
 H        -10.9459612185        0.1923079016        0.8380948698
 H         -9.5092809842        2.1026356233        1.4637870249
 H         -7.0409711398        1.8687437852        1.3619153381
 H         -5.9785876651       -4.5303002711       -1.0633963216
 H         -3.5077656306       -4.7816583183       -1.3228231092
 H          0.4413576037       -3.7653510538       -1.5768639836
 H          2.8647722567       -4.1768228604       -1.3642880625
 H          3.5502760225       -5.0997081589        1.1030283142
 H          4.5400900907       -7.3312694208        0.8036387232
 H          6.6631725757       -7.5929818002       -0.4305383003
 H          7.7843866261       -5.6031945125       -1.3695675636
 H          6.7879352615       -3.3732679103       -1.0876004779
 H          6.7271080275       -2.7222342002        1.6739840346
 H          8.2089239531       -0.7767556817        1.9488778458
 H          7.6990787199        1.3448127305        0.7914324298
 H          5.6902333036        1.5094105802       -0.6337056416
 H          4.2029761455       -0.4295904610       -0.9012323273
 H          3.1045213184       -1.1033170036        1.5989210296
 H          0.6930720813       -0.7084073264        1.3911394631
 H          0.8191885340       -0.0883943456       -1.5250740448
 H          2.0832170624        2.0077173819       -1.4329912703
 H         -0.6575584116        4.7176857020       -1.9287113983
 H         -1.7929067140        6.8705375476       -2.2707677993
 H         -1.0902575953        8.8631033537       -0.9907641325
 H          0.7455742198        8.6752282227        0.6502500782
 H          1.8679848218        6.5195781629        1.0110297111
 H          2.4782352230        2.5287122326        1.3903928922
 H          4.8623067673        2.4554517013        1.9813019123
 H          6.4380665728        4.0776775801        0.9890810397
 H          5.6112183913        5.7546503852       -0.6247595743
 H          3.2275924546        5.8270900381       -1.2222226930
 H         -1.1082961223        3.8560058672        0.7243719874
 H         -2.3463013337        1.7113769245        0.7038804309
  92
       -148.52243756
 O         -7.9169123651       -3.5090737928       -0.5806334566
 C         -7.2338311172       -2.5515524606       -0.2569355401
 C         -7.8240512812       -1.3418391547        0.3513723647
 C         -9.2073886708       -1.2669736913        0.4981022820
 C         -9.7962538653       -0.1532507972        1.0670530958
 C         -9.0055992164        0.8993364522        1.5045526507
 C         -7.6307920664        0.8323899421        1.3714124939
 C         -7.0263944060       -0.2799721260        0.7924087535
 C         -5.5467893614       -0.3175264446        0.6949313942
 O         -4.8574527007        0.5272406538        1.2351939821
 C         -4.9868937172       -1.4530653240       -0.0606238896
 C         -5.7719143150       -2.5255869281       -0.4737573986
 C         -5.1948865488       -3.6325464439       -1.1273345665
 C         -3.8455854034       -3.7207532268       -1.3315786220
 C         -3.0188310069       -2.6623990202       -0.9172474214
 N         -1.6827545985       -2.7851193463       -0.9348655605
 C         -0.9271945998       -1.7769332831       -0.5657060804
 C          0.4830533195       -2.0561920716       -0.3402135185
 C          1.0890947338       -3.1162268519       -1.0204588813
 C          2.4149153809       -3.4196913753       -0.8195737413
 C          3.1830841273       -2.6740194901        0.0803672548
 N          4.5256108817       -2.9700514297        0.2849574865
 C          4.9717017530       -4.2980770805        0.2402044732
 C          4.1839994150       -5.3234720892        0.7622963635
 C          4.6262412970       -6.6313055796        0.7162916300
 C          5.8584841964       -6.9361606200        0.1614716811
 C          6.6470783940       -5.9199113662       -0.3525939393
 C          6.2096854972       -4.6098107112       -0.3198168459
 C          5.4457906421       -1.9368571047        0.5090291673
 C          6.4854224404       -2.1026252096        1.4229156816
 C          7.4039302487       -1.0897865650        1.6205684027
 C          7.3016984223        0.0976386621        0.9139026107
 C          6.2685510480        0.2677195368        0.0064934802
 C          5.3427919821       -0.7376169625       -0.1946815473
 C          2.5722753901       -1.6285265099        0.7806766712
 C          1.2448100097       -1.3292576611        0.5792074413
 C         -1.5350524523       -0.4778452317       -0.3903440706
 C         -0.8054414044        0.7813422840       -0.4258339121
 C          0.3906646843        0.9464451895       -1.1285706505
 C          1.0568831853        2.1502838220       -1.1004605807
 C          0.5454678493        3.2323692841       -0.3770082629
 N          1.2388786036        4.4374949155       -0.3283418796
 C          0.5403763550        5.6516983549       -0.2821709113
 C         -0.6216757085        5.8236536224       -1.0333628171
 C         -1.3115335574        7.0192250305       -0.9818679213
 C         -0.8520420430        8.0607943955       -0.1923910260
 C          0.3058850508        7.8967954122        0.5500514543
 C          0.9985577008        6.7020599179        0.5116796139
 C          2.6385934297        4.4413172986       -0.2806095284
 C          3.3228050215        3.4785680019        0.4608848247
 C          4.7023852952        3.5006128694        0.5244496203
 C          5.4200437995        4.4735663248       -0.1524045600
 C          4.7451088757        5.4299703447       -0.8937147667
 C          3.3653463515        5.4183144956       -0.9601285146
 C         -0.6751842703        3.0807519719        0.2884287190
 C         -1.3399462282        1.8774915320        0.2586597276
 N         -2.8314132481       -0.3990181696       -0.2221616118
 C         -3.6006665326       -1.4815860463       -0.3617214241
 H         -9.8015185511       -2.1023191314        0.1581136448
 H        -10.8697033027       -0.1062731352        1.1738025780
 H         -9.4622474544        1.7700147081        1.9511699046
 H         -6.9962661669        1.6382278485        1.7099661803
 H         -5.8591068217       -4.4286325716       -1.4296749079
 H         -3.3910574953       -4.5946773670       -1.7718714449
 H          0.4971012336       -3.6825131992       -1.7222508832
 H          2.8757391816       -4.2300918776       -1.3646982605
 H          3.2281101772       -5.0860826796        1.2058961818
 H          4.0072964497       -7.4161724624        1.1249611160
 H          6.2020502508       -7.9587009877        0.1306420818
 H          7.6070532533       -6.1488463284       -0.7909375977
 H          6.8211758565       -3.8199824787       -0.7311086438
 H          6.5652830030       -3.0285693983        1.9735040988
 H          8.2026517737       -1.2281087816        2.3340402957
 H          8.0242385466        0.8845533684        1.0683196209
 H          6.1862674588        1.1844191793       -0.5586120525
 H          4.5403274942       -0.6051884262       -0.9054695844
 H          3.1509053448       -1.0654320768        1.4979241038
 H          0.7830371827       -0.5440849839        1.1578794734
 H          0.7867542505        0.1345219662       -1.7196241558
 H          1.9793780885        2.2710345242       -1.6491273416
 H         -0.9762623290        5.0148878027       -1.6552737806
 H         -2.2102046140        7.1398742198       -1.5683202464
 H         -1.3925043087        8.9942045933       -0.1564029206
 H          0.6689804601        8.7021903133        1.1711581003
 H          1.8958579337        6.5723038290        1.0989613087
 H          2.7651494427        2.7223709811        0.9935249910
 H          5.2172208978        2.7587126736        1.1170031790
 H          6.4981109601        4.4891431245       -0.0998347999
 H          5.2968386127        6.1894358032       -1.4276389962
 H          2.8395973509        6.1638036925       -1.5386385678
 H         -1.0840363934        3.9127015133        0.8419470659
 H         -2.2731802989        1.7458463141        0.7837039068
