  92
  -147.967572948400       0.583386543755492      !
 O         -7.8037880277       -3.7482647503       -0.6161487420
 C         -7.1507313522       -2.7734738697       -0.2821919308
 C         -7.7780269454       -1.5895657927        0.3396332340
 C         -9.1629201963       -1.5596015833        0.4877199296
 C         -9.7858901090       -0.4711560620        1.0691326623
 C         -9.0282003607        0.6007601766        1.5178891382
 C         -7.6520707046        0.5782944606        1.3834819310
 C         -7.0136258457       -0.5081948553        0.7920257937
 C         -5.5336419984       -0.4984004205        0.6935619364
 O         -4.8706494417        0.3615123753        1.2428259890
 C         -4.9390827936       -1.6075037040       -0.0746728743
 C         -5.6905002533       -2.6994351419       -0.4992865373
 C         -5.0796356056       -3.7805605170       -1.1652413650
 C         -3.7283872479       -3.8242903529       -1.3709723275
 C         -2.9348126898       -2.7452269944       -0.9453334058
 N         -1.5955666113       -2.8259169938       -0.9648247307
 C         -0.8716167862       -1.7987232343       -0.5848794681
 C          0.5468361248       -2.0362201652       -0.3630279248
 C          1.1852139306       -3.0692462949       -1.0551438670
 C          2.5200193334       -3.3333044957       -0.8581318165
 C          3.2651672625       -2.5739230118        0.0496665671
 N          4.6164410141       -2.8300711766        0.2504588086
 C          5.1037901668       -4.1429293142        0.1909076476
 C          4.3489069338       -5.1981276190        0.7019826725
 C          4.8317769247       -6.4909112528        0.6414037616
 C          6.0725381269       -6.7509749552        0.0827779080
 C          6.8286045483       -5.7049777567       -0.4203724111
 C          6.3505005826       -4.4096311608       -0.3729972642
 C          5.5040417739       -1.7711410687        0.4855361162
 C          6.5490186093       -1.9143656488        1.3971347312
 C          7.4355650535       -0.8755418069        1.6055711480
 C          7.2957489918        0.3158056567        0.9120661028
 C          6.2571233716        0.4634721321        0.0069894408
 C          5.3630921349       -0.5680416470       -0.2048836062
 C          2.6224937412       -1.5558003578        0.7616870516
 C          1.2861751214       -1.2959805229        0.5640453806
 C         -1.5196533170       -0.5212802302       -0.3949826679
 C         -0.8297826875        0.7604154043       -0.4168875698
 C          0.3600614264        0.9705482720       -1.1182311596
 C          0.9883472696        2.1942442665       -1.0771248050
 C          0.4438918275        3.2517921172       -0.3415986910
 N          1.0993315185        4.4773984663       -0.2799337341
 C          0.3632530974        5.6685902913       -0.2201195566
 C         -0.8041579161        5.8123824728       -0.9689174105
 C         -1.5310098791        6.9851642050       -0.9039882164
 C         -1.1037181848        8.0318452558       -0.1032675736
 C          0.0593147575        7.8959722399        0.6368706272
 C          0.7889636672        6.7239696591        0.5850717969
 C          2.4982776889        4.5244525755       -0.2327097399
 C          3.2127920572        3.5754688436        0.4978685791
 C          4.5910555910        3.6399318763        0.5611326281
 C          5.2774545703        4.6422294485       -0.1052454587
 C          4.5724108006        5.5851593766       -0.8357131560
 C          3.1936382876        5.5311052852       -0.9017114923
 C         -0.7709352544        3.0547802114        0.3226055347
 C         -1.3977845586        1.8317258687        0.2798461575
 N         -2.8177205458       -0.4848733780       -0.2254351266
 C         -3.5528632341       -1.5893608598       -0.3766085202
 H         -9.7308997438       -2.4093236992        0.1387841878
 H        -10.8602046284       -0.4589368155        1.1768129799
 H         -9.5115112101        1.4517731820        1.9742472188
 H         -7.0427936429        1.3998039129        1.7306420221
 H         -5.7188707019       -4.5936500716       -1.4760712917
 H         -3.2470895870       -4.6786832901       -1.8210412806
 H          0.6106938762       -3.6460119285       -1.7628985253
 H          3.0055472085       -4.1228591322       -1.4123289379
 H          3.3863912441       -4.9956299861        1.1485440023
 H          4.2379672460       -7.2991905627        1.0416463370
 H          6.4478744590       -7.7618738987        0.0405539185
 H          7.7949434716       -5.8989556558       -0.8615863844
 H          6.9367024156       -3.5965974379       -0.7758044337
 H          6.6581866321       -2.8433588571        1.9374604819
 H          8.2387441675       -0.9966632906        2.3171638330
 H          7.9934533275        1.1231786214        1.0748578568
 H          6.1458117834        1.3833097522       -0.5479534118
 H          4.5563580763       -0.4529571326       -0.9138560447
 H          3.1837679151       -0.9828126119        1.4848662752
 H          0.8005118814       -0.5320384118        1.1515104994
 H          0.7809005373        0.1779530272       -1.7183459251
 H          1.9062135337        2.3498013490       -1.6247892172
 H         -1.1337493867        4.9998141348       -1.5995593277
 H         -2.4334438713        7.0841009819       -1.4887245916
 H         -1.6730647925        8.9474507813       -0.0567900122
 H          0.3975156286        8.7054463617        1.2666678212
 H          1.6903127643        6.6158790096        1.1705377278
 H          2.6794367230        2.7963965266        1.0223660892
 H          5.1292643159        2.9080185603        1.1452778023
 H          6.3545464756        4.6909227911       -0.0529290650
 H          5.0997400864        6.3673271984       -1.3614563358
 H          2.6444196469        6.2661100276       -1.4717702167
 H         -1.2051842323        3.8674045204        0.8854129759
 H         -2.3260615865        1.6652042746        0.8037736357
  92
  -147.966104931400       0.123396404653410      !
 O         -7.8880063725       -3.7701218678       -0.4581587073
 C         -7.2320728599       -2.7708824918       -0.2159816411
 C         -7.8624121584       -1.5097793201        0.2251912280
 C         -9.2524228440       -1.4284755151        0.2695950606
 C         -9.8769833573       -0.2639036857        0.6754570343
 C         -9.1167215617        0.8335939361        1.0523624155
 C         -7.7360117442        0.7601037748        1.0243647268
 C         -7.0956063343       -0.4034196975        0.6078082294
 C         -5.6131387428       -0.4466602578        0.6202801985
 O         -4.9597654820        0.4307781185        1.1521514865
 C         -5.0080361693       -1.6278957533       -0.0230853671
 C         -5.7625983447       -2.7412626452       -0.3788568043
 C         -5.1461373199       -3.8858819562       -0.9220863950
 C         -3.7900770796       -3.9612236853       -1.0819808258
 C         -2.9941688541       -2.8564882960       -0.7323862317
 N         -1.6542385832       -2.9491603280       -0.7336649698
 C         -0.9280775285       -1.9005873940       -0.4232740517
 C          0.4986213285       -2.1149625925       -0.2222585224
 C          1.1416519323       -3.1442331373       -0.9142947906
 C          2.4950509877       -3.3503547684       -0.7776842127
 C          3.2522805667       -2.5286545135        0.0618225677
 N          4.6299398646       -2.6935369314        0.1728595318
 C          5.1924890408       -3.9755229936        0.1515408876
 C          4.5347327795       -5.0394244202        0.7684323849
 C          5.0903126951       -6.3039204048        0.7515956905
 C          6.3086353384       -6.5268417987        0.1310177836
 C          6.9669110285       -5.4725121034       -0.4805328718
 C          6.4152406197       -4.2059427943       -0.4774543847
 C          5.4558995125       -1.5641396838        0.2456786056
 C          6.5920293720       -1.5671715910        1.0534690997
 C          7.4155327508       -0.4586117716        1.0969480655
 C          7.1204602485        0.6646001597        0.3415383907
 C          5.9882708700        0.6752247365       -0.4570742302
 C          5.1577655588       -0.4271144214       -0.5049056220
 C          2.6022450785       -1.5297779418        0.7935437989
 C          1.2474859826       -1.3324593090        0.6616671696
 C         -1.5670569756       -0.6107298925       -0.3076907406
 C         -0.8595829932        0.6621651907       -0.3544146131
 C          0.3372025761        0.8448083030       -1.0516779386
 C          0.9942513112        2.0530403984       -1.0041243015
 C          0.4692833405        3.1222797777       -0.2716679647
 N          1.1665425488        4.3248030476       -0.1911346381
 C          0.4754496232        5.5423010364       -0.1599330404
 C         -0.6680244570        5.7204687162       -0.9380339801
 C         -1.3495732948        6.9215264462       -0.9068913370
 C         -0.9005139758        7.9629728345       -0.1113266178
 C          0.2369827035        7.7917409445        0.6605727338
 C          0.9205555189        6.5914370805        0.6434149960
 C          2.5612833241        4.3101849422       -0.0648761224
 C          3.1890367884        3.3320357912        0.7061685104
 C          4.5621691358        3.3373422039        0.8531401031
 C          5.3295496844        4.3088619319        0.2308419261
 C          4.7118735792        5.2774685307       -0.5434599731
 C          3.3384861774        5.2821143002       -0.6936182468
 C         -0.7605506366        2.9593970136        0.3723635285
 C         -1.4135120085        1.7496056779        0.3278574289
 N         -2.8682348336       -0.5481850775       -0.1727065232
 C         -3.6117569123       -1.6538812542       -0.2734270049
 H         -9.8233452817       -2.2977450478       -0.0216165582
 H        -10.9551400515       -0.2109803942        0.7004710409
 H         -9.6017624471        1.7443212423        1.3707560709
 H         -7.1250072508        1.5993155043        1.3225101689
 H         -5.7864730790       -4.7166265547       -1.1792186100
 H         -3.3068069685       -4.8561739519       -1.4420691017
 H          0.5575928539       -3.7602743026       -1.5800066598
 H          2.9855178586       -4.1352791135       -1.3341537983
 H          3.5903495680       -4.8648595557        1.2629093419
 H          4.5716369890       -7.1186341782        1.2346187381
 H          6.7421040798       -7.5150752502        0.1242399327
 H          7.9143160656       -5.6380317694       -0.9716424001
 H          6.9253166938       -3.3881574201       -0.9650800524
 H          6.8213764879       -2.4424174565        1.6434925415
 H          8.2918778247       -0.4716139367        1.7278435811
 H          7.7695298201        1.5262728382        0.3735084834
 H          5.7526607928        1.5451758897       -1.0518351067
 H          4.2784427968       -0.4195232504       -1.1319826176
 H          3.1766532535       -0.9168085787        1.4722244190
 H          0.7575355787       -0.5810024650        1.2613733880
 H          0.7425952297        0.0428876731       -1.6498847444
 H          1.9228880821        2.1867268104       -1.5392821326
 H         -1.0137855700        4.9128868698       -1.5663759804
 H         -2.2328452126        7.0470485304       -1.5153531031
 H         -1.4336673758        8.9010499905       -0.0920866093
 H          0.5906708741        8.5957322521        1.2888923045
 H          1.8006645857        6.4566531850        1.2549782741
 H          2.5915474301        2.5776649610        1.1964116613
 H          5.0349165430        2.5812309537        1.4621335809
 H          6.4022853956        4.3113253961        0.3496261824
 H          5.3034552483        6.0339036927       -1.0376209322
 H          2.8569512909        6.0374377532       -1.2972209288
 H         -1.1841362921        3.7853130833        0.9238741857
 H         -2.3537480832        1.6077375705        0.8375153704
  92
  -147.965996198000       0.109984654593183      !
 O         -7.9251789395       -3.7246128575       -0.3931773142
 C         -7.2568248385       -2.7336709132       -0.1507019401
 C         -7.8702301583       -1.4697662405        0.3058833745
 C         -9.2585037740       -1.3815486046        0.3815468429
 C         -9.8681522782       -0.2153186242        0.8049753829
 C         -9.0943258790        0.8774777852        1.1676839045
 C         -7.7150875771        0.7976186568        1.1073114464
 C         -7.0896973309       -0.3678675838        0.6734848923
 C         -5.6076889365       -0.4166496468        0.6523254920
 O         -4.9395813614        0.4675578797        1.1543974599
 C         -5.0204039173       -1.6104535909        0.0163521526
 C         -5.7883382698       -2.7195372120       -0.3242544217
 C         -5.1865614248       -3.8753913184       -0.8598784291
 C         -3.8316404961       -3.9682104749       -1.0221811573
 C         -3.0223652123       -2.8695697909       -0.6853591847
 N         -1.6832126860       -2.9777338011       -0.6848995942
 C         -0.9464293960       -1.9362330743       -0.3783242261
 C          0.4787416015       -2.1602300093       -0.1781642693
 C          1.1325639256       -3.1432352697       -0.9238612679
 C          2.4907878541       -3.3302389484       -0.8081903434
 C          3.2394299369       -2.5436574182        0.0723236689
 N          4.6203881533       -2.6784375629        0.1557709552
 C          5.2269141248       -3.9281355143       -0.0278074093
 C          4.6356899093       -5.0794035409        0.4910952572
 C          5.2341437666       -6.3107409072        0.3068777425
 C          6.4295440843       -6.4132870993       -0.3857975501
 C          7.0233216762       -5.2713217020       -0.8979051877
 C          6.4286248665       -4.0362562625       -0.7262334630
 C          5.4188777143       -1.5408435563        0.3413728738
 C          6.5579602483       -1.6023708624        1.1421688492
 C          7.3541376668       -0.4845292832        1.3029368748
 C          7.0288173447        0.7045861727        0.6712173113
 C          5.8960714455        0.7712883805       -0.1238387567
 C          5.0925464046       -0.3397615200       -0.2876267025
 C          2.5744679982       -1.6045978382        0.8685384230
 C          1.2175920727       -1.4173780655        0.7471346362
 C         -1.5677792690       -0.6362570311       -0.2793106485
 C         -0.8459656683        0.6284371466       -0.3406898543
 C          0.3888010180        0.7772594475       -0.9775616504
 C          1.0548628384        1.9811578668       -0.9342734535
 C          0.4935573194        3.0826367429       -0.2833188008
 N          1.1942469589        4.2870855534       -0.2111225881
 C          0.5142322828        5.4982983575       -0.3796122055
 C         -0.5312942226        5.5874959782       -1.2986682259
 C         -1.2040840404        6.7809099131       -1.4735374350
 C         -0.8433474330        7.9028951179       -0.7455061588
 C          0.1936491573        7.8190002298        0.1691805592
 C          0.8666969575        6.6275396388        0.3584986182
 C          2.5587701910        4.2703494653        0.0951444193
 C          3.0672340159        3.3187370778        0.9801522325
 C          4.4083818625        3.3195332548        1.3086861526
 C          5.2636367297        4.2623234566        0.7611359017
 C          4.7669873393        5.2010712582       -0.1283259987
 C          3.4269112919        5.2074120780       -0.4644333732
 C         -0.7752348054        2.9564583311        0.2880465240
 C         -1.4297236566        1.7469385312        0.2635614741
 N         -2.8692374872       -0.5568940889       -0.1542911632
 C         -3.6255377939       -1.6544749523       -0.2401279949
 H         -9.8401611103       -2.2470942362        0.1007351802
 H        -10.9451597741       -0.1577783337        0.8555909381
 H         -9.5674808569        1.7891745897        1.5007791959
 H         -7.0932742827        1.6333526071        1.3928067081
 H         -5.8366818119       -4.7018882503       -1.1060447822
 H         -3.3596977195       -4.8733186882       -1.3717627957
 H          0.5554611125       -3.7318431814       -1.6198686790
 H          2.9908682085       -4.0700774081       -1.4153545347
 H          3.7090682116       -4.9988480617        1.0404257116
 H          4.7672681745       -7.1950281596        0.7144847683
 H          6.8952922973       -7.3766759001       -0.5255486845
 H          7.9524404968       -5.3425434466       -1.4436408370
 H          6.8876267044       -3.1480078914       -1.1351303913
 H          6.8114324525       -2.5302476787        1.6337070217
 H          8.2325163344       -0.5428178745        1.9284528186
 H          7.6549153002        1.5747296326        0.7957374170
 H          5.6394244556        1.6927460205       -0.6246286163
 H          4.2127134925       -0.2884619113       -0.9119270297
 H          3.1401302591       -1.0240839982        1.5820061334
 H          0.7172061990       -0.7020844143        1.3820823417
 H          0.8188626585       -0.0457250232       -1.5271239064
 H          2.0172598652        2.0875332235       -1.4131716359
 H         -0.8073241475        4.7163128413       -1.8744305827
 H         -2.0096662333        6.8365047830       -2.1905777912
 H         -1.3670709853        8.8354618390       -0.8891609871
 H          0.4765929634        8.6863726436        0.7470476835
 H          1.6661235043        6.5627711402        1.0819035187
 H          2.4008419801        2.5888143410        1.4153536182
 H          4.7870723186        2.5831318648        2.0020479039
 H          6.3098819136        4.2646440821        1.0259814988
 H          5.4284555005        5.9331035875       -0.5676707810
 H          3.0426845740        5.9380531301       -1.1609286301
 H         -1.2263915211        3.8112749011        0.7693918274
 H         -2.3971436935        1.6295313818        0.7264421351
  92
  -147.965907663600       0.100148512271252      !
 O         -7.9241591111       -3.7922740521       -0.3470782393
 C         -7.2699619577       -2.7796804416       -0.1634570148
 C         -7.9048572962       -1.4856640811        0.1602221040
 C         -9.2945780454       -1.3909421357        0.1422979482
 C         -9.9224952742       -0.1953324668        0.4382889709
 C         -9.1664412673        0.9201034941        0.7679768142
 C         -7.7865127851        0.8340963412        0.8023002978
 C         -7.1423673908       -0.3607391639        0.4943396112
 C         -5.6620437813       -0.4150065316        0.5683581071
 O         -5.0206268777        0.4857580070        1.0747883401
 C         -5.0453223156       -1.6358884090        0.0156626093
 C         -5.7963401082       -2.7667878525       -0.2879685551
 C         -5.1722395804       -3.9462093864       -0.7398859303
 C         -3.8132512687       -4.0341153188       -0.8641643544
 C         -3.0212463117       -2.9101034162       -0.5716511404
 N         -1.6809744511       -3.0043268309       -0.5558101495
 C         -0.9573491576       -1.9397748841       -0.2991312805
 C          0.4739407436       -2.1370098244       -0.1085546541
 C          1.1159669351       -3.1711312746       -0.7937761389
 C          2.4775390250       -3.3434766966       -0.6987385661
 C          3.2437084017       -2.4805532207        0.0895640164
 N          4.6298986671       -2.6003653454        0.1394856859
 C          5.2251571146       -3.8680061782        0.1070987577
 C          4.6406820203       -4.9301471475        0.7964083997
 C          5.2234167835       -6.1820306606        0.7677661607
 C          6.3965436087       -6.3935028998        0.0620460190
 C          6.9818177798       -5.3408488374       -0.6223105458
 C          6.4023999572       -4.0867704742       -0.6068354683
 C          5.4261349587       -1.4483165222        0.1224654528
 C          6.6251739253       -1.4070548032        0.8324213932
 C          7.4256565145       -0.2821643389        0.7788717773
 C          7.0438009262        0.8153261128        0.0249948063
 C          5.8459922275        0.7850658329       -0.6706229057
 C          5.0395081938       -0.3348794724       -0.6236549930
 C          2.5948167331       -1.4858049571        0.8277287429
 C          1.2317471088       -1.3232045843        0.7387279542
 C         -1.5956014782       -0.6459616357       -0.2483287966
 C         -0.8787364037        0.6210913910       -0.3234524181
 C          0.3260092048        0.7780107937       -1.0133236926
 C          1.0055325558        1.9738412652       -0.9648290501
 C          0.4923563939        3.0559423110       -0.2437830472
 N          1.2185836484        4.2416161369       -0.1480593480
 C          0.5526425543        5.4731660579       -0.1612573918
 C         -0.5495695239        5.6613498376       -0.9947384433
 C         -1.2111691191        6.8735884146       -1.0096161536
 C         -0.7828104898        7.9165190756       -0.2047597559
 C          0.3130828240        7.7351077152        0.6228117263
 C          0.9762459673        6.5236115956        0.6516408884
 C          2.6023576744        4.1894519359        0.0549001015
 C          3.1625435570        3.1817987395        0.8408564251
 C          4.5243373491        3.1515783334        1.0672686835
 C          5.3481275949        4.1189018921        0.5147120188
 C          4.7992196857        5.1140940840       -0.2770540242
 C          3.4379106599        5.1519932517       -0.5103857499
 C         -0.7527631765        2.9248643068        0.3769222945
 C         -1.4257706306        1.7257015330        0.3360297911
 N         -2.8986852115       -0.5723689466       -0.1402402802
 C         -3.6433987624       -1.6811809143       -0.1980618239
 H         -9.8626409529       -2.2742379326       -0.1095426408
 H        -11.0001436169       -0.1324244675        0.4154947754
 H         -9.6542809549        1.8546753330        1.0016821229
 H         -7.1791924009        1.6874997557        1.0658780448
 H         -5.8094332489       -4.7907312748       -0.9568117489
 H         -3.3249864521       -4.9509117257       -1.1560151055
 H          0.5244343971       -3.8145279722       -1.4261843059
 H          2.9672281093       -4.1297475309       -1.2539233792
 H          3.7316519645       -4.7633852456        1.3558036790
 H          4.7621869186       -6.9954728567        1.3076302218
 H          6.8515640427       -7.3717683062        0.0456057465
 H          7.8928789204       -5.4981272266       -1.1803581937
 H          6.8542463823       -3.2706938951       -1.1516638327
 H          6.9234398248       -2.2624037269        1.4206260116
 H          8.3527143522       -0.2626771214        1.3324879823
 H          7.6752065646        1.6892888969       -0.0212988128
 H          5.5412995318        1.6371448211       -1.2597092323
 H          4.1112897355       -0.3607084874       -1.1751369956
 H          3.1777114021       -0.8446204771        1.4722277976
 H          0.7437595666       -0.5720788704        1.3405478406
 H          0.7217224250       -0.0348236715       -1.6030451046
 H          1.9439932032        2.0872656033       -1.4875143042
 H         -0.8795026249        4.8515353629       -1.6286896285
 H         -2.0628138107        7.0062472208       -1.6601433037
 H         -1.2999065653        8.8635473810       -0.2215923282
 H          0.6495208993        8.5400302420        1.2592533598
 H          1.8222339084        6.3810896140        1.3078186563
 H          2.5207600755        2.4329873800        1.2809051864
 H          4.9450282974        2.3722628418        1.6852607209
 H          6.4107790917        4.0965314183        0.7011063916
 H          5.4354044894        5.8662769324       -0.7195943094
 H          3.0110936805        5.9281482177       -1.1284637950
 H         -1.1700694461        3.7650154982        0.9115035028
 H         -2.3764463026        1.6056974974        0.8316978327
  92
  -147.965535258600       6.753035206581444E-002 !
 O         -7.9271791669       -3.7612695976       -0.3416126646
 C         -7.2652702777       -2.7559613545       -0.1447656458
 C         -7.8892799411       -1.4674910583        0.2199994108
 C         -9.2787351417       -1.3688468077        0.2330345276
 C         -9.8970638037       -0.1798216950        0.5723607490
 C         -9.1312894495        0.9248753679        0.9150761410
 C         -7.7512203293        0.8351900484        0.9169748805
 C         -7.1168495260       -0.3526341761        0.5649499540
 C         -5.6353997728       -0.4098196185        0.6029450735
 O         -4.9807117094        0.4845713225        1.1043794709
 C         -5.0333660043       -1.6245453341        0.0219370280
 C         -5.7935398317       -2.7473204448       -0.2895288623
 C         -5.1804720327       -3.9221323465       -0.7679523016
 C         -3.8232757441       -4.0151281679       -0.9089140260
 C         -3.0222198166       -2.8999892468       -0.6075762772
 N         -1.6823014786       -3.0012377462       -0.6013719777
 C         -0.9517801420       -1.9451972028       -0.3301907647
 C          0.4774113814       -2.1540173012       -0.1383308624
 C          1.1236827550       -3.1656501179       -0.8520202058
 C          2.4839479939       -3.3447350656       -0.7487867175
 C          3.2434522640       -2.5161394032        0.0821458675
 N          4.6270684565       -2.6423766333        0.1478797829
 C          5.2305460038       -3.9019007226        0.0383936277
 C          4.6451125215       -5.0145387100        0.6415472158
 C          5.2403595566       -6.2564050414        0.5340727373
 C          6.4268930337       -6.4076188295       -0.1648902883
 C          7.0139321610       -5.3042730696       -0.7623566519
 C          6.4220583117       -4.0596143654       -0.6680948411
 C          5.4247512651       -1.4929409348        0.2317670336
 C          6.5899031771       -1.4971122128        0.9968028720
 C          7.3893956417       -0.3714213856        1.0496297570
 C          7.0409990012        0.7695545717        0.3457268936
 C          5.8796555905        0.7812606534       -0.4098042253
 C          5.0729865608       -0.3380611469       -0.4665331040
 C          2.5882677840       -1.5453643176        0.8472127416
 C          1.2279336776       -1.3712088440        0.7437616012
 C         -1.5812949481       -0.6477275708       -0.2621314329
 C         -0.8625978118        0.6183716815       -0.3340457133
 C          0.3566267686        0.7720891022       -0.9988627124
 C          1.0273060823        1.9732356297       -0.9553770005
 C          0.4892109519        3.0654808224       -0.2690208215
 N          1.2016314523        4.2608766368       -0.1860054981
 C          0.5259529581        5.4847783408       -0.2556113022
 C         -0.5591179919        5.6344022307       -1.1191640005
 C         -1.2293412936        6.8398059398       -1.1913733041
 C         -0.8266973646        7.9141596166       -0.4149152779
 C          0.2516113007        7.7709465521        0.4427001558
 C          0.9229818670        6.5666791112        0.5291366270
 C          2.5792925729        4.2266555393        0.0580332813
 C          3.1226399024        3.2488167972        0.8918706647
 C          4.4772015184        3.2367741229        1.1596557524
 C          5.3105628676        4.1920858636        0.6003923159
 C          4.7786694478        5.1571934039       -0.2390479404
 C          3.4247057415        5.1772099685       -0.5131933212
 C         -0.7672526256        2.9354901748        0.3285633609
 C         -1.4294386982        1.7302898006        0.2967355877
 N         -2.8837266297       -0.5696122277       -0.1467766699
 C         -3.6345006540       -1.6733071360       -0.2104159444
 H         -9.8544480097       -2.2440458879       -0.0295088918
 H        -10.9747739757       -0.1137840723        0.5727180368
 H         -9.6113530207        1.8541547351        1.1832695354
 H         -7.1361632412        1.6805490681        1.1881951200
 H         -5.8241840715       -4.7603968450       -0.9897994868
 H         -3.3432614809       -4.9307882654       -1.2175512960
 H          0.5377431357       -3.7849971041       -1.5130936751
 H          2.9774008766       -4.1104875181       -1.3287306167
 H          3.7255372158       -4.8953870581        1.1956850354
 H          4.7784550262       -7.1102078922        1.0071147176
 H          6.8908876818       -7.3787476701       -0.2435292942
 H          7.9357263672       -5.4138993551       -1.3141354163
 H          6.8757726950       -3.2024477875       -1.1436636769
 H          6.8617295465       -2.3874522707        1.5446778375
 H          8.2887768149       -0.3855830250        1.6472802923
 H          7.6710704458        1.6447964610        0.3837942242
 H          5.6035128672        1.6658601300       -0.9638468554
 H          4.1713174498       -0.3302634371       -1.0610133170
 H          3.1642917228       -0.9312814228        1.5234468141
 H          0.7350022056       -0.6350752180        1.3602593769
 H          0.7704001731       -0.0460609377       -1.5682230966
 H          1.9771986982        2.0835918688       -1.4576486065
 H         -0.8685510711        4.8001334680       -1.7314431542
 H         -2.0674004573        6.9425452987       -1.8646618092
 H         -1.3499589157        8.8559044357       -0.4771683718
 H          0.5682916879        8.6007775747        1.0570205026
 H          1.7546523156        6.4544839500        1.2089897888
 H          2.4732572678        2.5091918585        1.3363631835
 H          4.8840455507        2.4806888416        1.8147210440
 H          6.3675206163        4.1840110751        0.8180085624
 H          5.4229148867        5.8991244820       -0.6873597795
 H          3.0112874989        5.9293078817       -1.1690292860
 H         -1.2025671237        3.7825041041        0.8373477792
 H         -2.3882721932        1.6111707513        0.7767139391
  92
  -147.964147717000       1.555353266084730E-002 !
 O         -7.9568239635       -3.8210465400       -0.1876664125
 C         -7.3035195763       -2.7974439010       -0.0780297225
 C         -7.9386767056       -1.4831515460        0.1496386808
 C         -9.3273467694       -1.3851366817        0.1023569879
 C         -9.9542060717       -0.1700480135        0.3070645164
 C         -9.1985327006        0.9619325707        0.5756116647
 C         -7.8198511489        0.8732423781        0.6406861383
 C         -7.1766412851       -0.3414708944        0.4224022361
 C         -5.6982282902       -0.3979503846        0.5261356822
 O         -5.0610146821        0.5228301072        1.0002695955
 C         -5.0790874251       -1.6463454817        0.0413458597
 C         -5.8296259584       -2.7917169053       -0.2027420701
 C         -5.2048107540       -3.9936597864       -0.5894375682
 C         -3.8456582410       -4.0870622050       -0.7076244047
 C         -3.0540753476       -2.9491954255       -0.4728449017
 N         -1.7133194631       -3.0437932746       -0.4523098001
 C         -0.9911994119       -1.9686686934       -0.2420053236
 C          0.4429570339       -2.1502369640       -0.0540074540
 C          1.0947937090       -3.1790053385       -0.7372391696
 C          2.4618646786       -3.3182230378       -0.6660296315
 C          3.2215990738       -2.4255367930        0.0946239931
 N          4.6122476843       -2.4997487972        0.1054765977
 C          5.2460885284       -3.7483623323        0.0697737343
 C          4.7205624845       -4.8156457321        0.7975098442
 C          5.3402296240       -6.0497557987        0.7674691481
 C          6.4924814786       -6.2377243136        0.0217090204
 C          7.0185947053       -5.1800330052       -0.7019339033
 C          6.4015681265       -3.9441184118       -0.6853101198
 C          5.3679929614       -1.3231907936        0.0290014298
 C          6.5967700794       -1.2301745181        0.6807952242
 C          7.3625481352       -0.0866079773        0.5593152870
 C          6.9150084454        0.9794391813       -0.2030688412
 C          5.6836750900        0.9016439728       -0.8329498400
 C          4.9126981032       -0.2383233785       -0.7207297822
 C          2.5633086928       -1.4434408863        0.8410878209
 C          1.1952909921       -1.3143258875        0.7765038961
 C         -1.6278659609       -0.6730489365       -0.2453377500
 C         -0.9007228730        0.5865885140       -0.3479718754
 C          0.3158456016        0.7152615947       -1.0233561136
 C          1.0208477027        1.8958208531       -0.9670506717
 C          0.5199900741        2.9906023391       -0.2570941196
 N          1.2823704050        4.1521362476       -0.1343172597
 C          0.6566295765        5.4037599227       -0.1778210275
 C         -0.3966527111        5.6226739818       -1.0655642114
 C         -1.0193755679        6.8543968241       -1.1158093823
 C         -0.6001947831        7.8865387658       -0.2922198526
 C          0.4452222396        7.6737338543        0.5912662049
 C          1.0686026700        6.4425680058        0.6558075210
 C          2.6465059279        4.0511547975        0.1599994544
 C          3.1214969435        3.0146907999        0.9647555864
 C          4.4611595922        2.9451494893        1.2915506517
 C          5.3471003576        3.9030037077        0.8260900482
 C          4.8853763745        4.9215420216        0.0090215130
 C          3.5477875879        4.9965831366       -0.3284498643
 C         -0.7439920274        2.8949813885        0.3303169285
 C         -1.4406718683        1.7092351794        0.2859692862
 N         -2.9314205596       -0.5921758691       -0.1513917739
 C         -3.6763643903       -1.7029659299       -0.1633887226
 H         -9.8953639279       -2.2809471094       -0.1004891659
 H        -11.0309764701       -0.1047347370        0.2610415888
 H         -9.6856568346        1.9119715366        0.7374804298
 H         -7.2131277409        1.7401078117        0.8576949182
 H         -5.8414074447       -4.8488580088       -0.7618283569
 H         -3.3564071037       -5.0177503050       -0.9497182859
 H          0.5068047688       -3.8421127527       -1.3524236766
 H          2.9602090956       -4.0984906431       -1.2219984596
 H          3.8272545382       -4.6666907084        1.3863806444
 H          4.9246347779       -6.8674329856        1.3373364659
 H          6.9768151488       -7.2019078581        0.0036810906
 H          7.9121834238       -5.3198108487       -1.2919968047
 H          6.8072387268       -3.1245283847       -1.2601346917
 H          6.9464698944       -2.0615562017        1.2750771198
 H          8.3147870324       -0.0285315519        1.0655125827
 H          7.5204197063        1.8663630334       -0.3068891344
 H          5.3269817778        1.7315055845       -1.4246383517
 H          3.9595717971       -0.3028093235       -1.2243888623
 H          3.1435382232       -0.7825579462        1.4677392496
 H          0.6994405502       -0.5705153438        1.3811786646
 H          0.7016444634       -0.1076818085       -1.6055173307
 H          1.9730729816        1.9861863724       -1.4687115450
 H         -0.7186646853        4.8208272706       -1.7136557242
 H         -1.8326302651        7.0112041150       -1.8087299227
 H         -1.0858670337        8.8491756679       -0.3374225164
 H          0.7731016104        8.4696216280        1.2434696232
 H          1.8741941722        6.2766004232        1.3557856504
 H          2.4303715506        2.2758697538        1.3423958422
 H          4.8154520105        2.1441849029        1.9234697540
 H          6.3898578346        3.8540037603        1.0987214722
 H          5.5716006638        5.6639901663       -0.3709794191
 H          3.1896320411        5.7911191028       -0.9665052250
 H         -1.1548343840        3.7490482457        0.8475571245
 H         -2.4024427838        1.6119695132        0.7650743121
