45
 energy: -74.353610863661 gnorm: 0.000043781937 xtb: 6.7.1 (edcfbbe)
O           -3.94069599688702        2.05487699346179        2.25018488127473
S           -3.64405643486877        1.99590396163324        0.84344245003843
O           -3.83419718964504        3.18013637750371        0.04858132643775
C           -4.58329718804458        0.64704379677420        0.11576702938234
C           -5.19104165847434       -0.28181071472332        0.93681230972261
C           -5.88205387378101       -1.33817418277842        0.36608354775047
C           -5.95101232558436       -1.45168092744709       -1.01358640150867
C           -5.33708780495559       -0.51200737321639       -1.82783591271872
C           -4.64567560496287        0.54515274124356       -1.26040638556721
C           -1.95030590746617        1.43759502633251        0.63312218317064
C           -1.46137546422752        0.44913514888984        1.46686283072136
C           -0.16744385009426       -0.00461469843325        1.30022821268589
C            0.63288031089715        0.52802259161222        0.28767158404149
N            1.94227908136847        0.07581523957180        0.11971201967381
C            2.34393856236309       -1.24748578619777        0.06473022850604
C            1.58087076633107       -2.40546500616825        0.09155697070109
C            2.24032434232719       -3.61553197845304       -0.01688391141916
C            3.62417142287134       -3.67998477078325       -0.15907025197855
C            4.38578085860337       -2.52971488231532       -0.21416446223486
C            3.74532038013885       -1.30249072569799       -0.10722031644048
C            4.20757598573775        0.05747306224184       -0.14699915395353
C            5.46546126628162        0.63263108671683       -0.26979310222269
C            5.56823017030198        2.00907776491807       -0.24249854722011
C            4.43920116071243        2.80771057389925       -0.07757864012476
C            3.17708866506366        2.25785778983194        0.04634225102222
C            3.06489885232072        0.87649025310192       -0.00848209753501
C            0.12238904134656        1.51996455930273       -0.55080386849371
C           -1.17041555838663        1.97447645643517       -0.37309516463543
H           -5.12722021525283       -0.15120531400215        2.00577124433990
H           -6.36779126356741       -2.06887330404140        0.99499807739441
H           -6.49124275241638       -2.27444351959718       -1.45786768209071
H           -5.40021040699654       -0.60242610275615       -2.90170763940407
H           -4.17004031054619        1.30121546232812       -1.86508474826632
H           -2.09137491412002        0.06782260124063        2.25486854244201
H            0.24087399512059       -0.75266622743510        1.96236578258335
H            0.50552651455674       -2.36777760866588        0.18056899936762
H            1.66819624350458       -4.53119580702771        0.00516378146242
H            4.10232255734483       -4.64482368077211       -0.23743998834727
H            5.45636149004731       -2.57776633044170       -0.34283143720295
H            6.34180599141265        0.01180568228180       -0.37783857958388
H            6.53636969995413        2.47721250708797       -0.33847727209092
H            4.55188632501652        3.88099347658845       -0.04098690168207
H            2.31270203472049        2.88669759055996        0.19602255463404
H            0.73856119864012        1.91609253580704       -1.34337762656096
H           -1.58847419672247        2.74893266156518       -0.99682971608085
