45
 energy: -74.244445290404 gnorm: 0.000105332541 xtb: 6.7.1 (edcfbbe)
O           -3.96756391387743        2.42870527300979       -0.13324454773275
S           -3.60426262130679        1.18858377381499       -0.76999840632826
O           -4.02021176956565        0.95814520993482       -2.12991882851806
C           -4.18073203011534       -0.17237799866043        0.24665120793219
C           -4.35759511119603       -1.41827488464234       -0.33064017683160
C           -4.71695088985253       -2.48811000485567        0.46865628281768
C           -4.88503727287758       -2.30761330368011        1.83456804423357
C           -4.70292817977879       -1.05449222363534        2.40270513361340
C           -4.34337724797031        0.01885659684678        1.60803178853845
C           -1.86384725320105        0.93818446347860       -0.63359599297508
C           -1.16201648225478        1.48125994875955        0.46260894447847
C            0.16495511732472        1.22727482546930        0.62391910188620
C            0.84485673756908        0.35604147716314       -0.28219912370404
N            2.17706190112739        0.07673404462439       -0.11419704757361
C            2.76653787134652       -1.16808252586687       -0.26056590779843
C            2.17720874703991       -2.39694755777989       -0.51016170018320
C            3.00042751929412       -3.51363081853117       -0.58539439650768
C            4.37961992393909       -3.40107062501998       -0.39980910103245
C            4.97361533410148       -2.18449660973600       -0.10747601376667
C            4.16945365191512       -1.05305747267721       -0.01626594127144
C            4.41830284252895        0.31446225569544        0.30519848430032
C            5.56307757149111        1.03539440727611        0.62871793141266
C            5.45386857229990        2.40143957782440        0.83169117805892
C            4.23162204131332        3.06226045305248        0.70080582842099
C            3.07191981434097        2.36290444232878        0.38942013013215
C            3.16252192800362        0.99021751805981        0.22581044077783
C            0.10922944178306       -0.22144031167588       -1.36376652566992
C           -1.20967883354892        0.06788984347057       -1.53079788014087
H           -4.23399701606142       -1.52083151079761       -1.39711386073868
H           -4.86919890236550       -3.46283155394332        0.02948471937114
H           -5.16381606075141       -3.14469407081122        2.45710177277343
H           -4.84422140645327       -0.91661195710250        3.46434472976377
H           -4.20904404577936        1.00852968384015        2.01510366593188
H           -1.70490198171349        2.11320855378623        1.14688751029128
H            0.70239148049701        1.60396270233060        1.48058703185998
H            1.10832330051548       -2.49611117941323       -0.61838312230874
H            2.56562449048500       -4.48118642334359       -0.77875193850204
H            4.99169814826318       -4.28796128034683       -0.46874633862472
H            6.03795905948649       -2.11304931744805        0.05420950632713
H            6.51718180668155        0.53826931115213        0.71039772985322
H            6.33555394854184        2.97363184989004        1.07902391876517
H            4.18649959377887        4.13145185982961        0.83235915426536
H            2.13754589425973        2.88508116780224        0.25557064663217
H            0.64430951018753       -0.81164058925582       -2.09194485866702
H           -1.77423490992413       -0.30941314171220       -2.36804600233677
