45
 energy: -74.353615009312 gnorm: 0.000057629299 xtb: 6.7.1 (edcfbbe)
O           -3.84070996028471        2.44358639927778        0.47986682468527
S           -3.54245373011024        1.38920876584186       -0.45265775870349
O           -3.89715609351811        1.57086043820491       -1.83522575307054
C           -4.28515472738052       -0.13893382971838        0.13429201785573
C           -4.83122630996971       -1.02557119735275       -0.77222739270836
C           -5.36475147238050       -2.21863416374631       -0.31264974860180
C           -5.33991599865853       -2.50817394481835        1.04256575207452
C           -4.78923034288977       -1.60929311040016        1.94352096015654
C           -4.25541925955343       -0.41579017503417        1.48732855288381
C           -1.78907810125220        1.01683135377272       -0.34723877826270
C           -1.03852585295989        1.53120190597573        0.69245855599732
C            0.30098745009020        1.20697190910167        0.79296773130416
C            0.88724285236305        0.36852550227735       -0.15619931802751
N            2.24081806355200        0.04307611433890       -0.06191060159952
C            2.77726213264024       -1.22943567000193       -0.15578856144370
C            2.13659905742221       -2.45166148749410       -0.29607939086486
C            2.91923948188493       -3.59064780316691       -0.32880970899715
C            4.30561445224730       -3.52454326021780       -0.21501061006892
C            4.94631521295201       -2.31319541349208       -0.04670683371981
C            4.18078304604295       -1.15544262266816       -0.01080436512193
C            4.50199582094303        0.23337176679332        0.17019319091545
C            5.69697980517050        0.92021539449320        0.33860575879165
C            5.65754439648773        2.29478648694803        0.46066401426666
C            4.44898787196532        2.98413942655397        0.39838962323328
C            3.24718112185586        2.32195198293220        0.23153768743695
C            3.27829626853162        0.93850155656045        0.13715152382170
C            0.11646350608560       -0.14025698069781       -1.20345194015126
C           -1.22385860864082        0.18127995151421       -1.29253229059325
H           -4.84348998843303       -0.75840264869125       -1.81736684846792
H           -5.80082277665821       -2.91921769464970       -1.00865029474008
H           -5.75694353271560       -3.43783695633887        1.40032453358768
H           -4.77855915886717       -1.83804823144493        2.99847503007091
H           -3.83261770640356        0.31087863815185        2.16315078633453
H           -1.51727842300190        2.18531003974462        1.40420550071111
H            0.89633075520061        1.58454718797324        1.61011359259486
H            1.06112220502595       -2.51793153736750       -0.36420493071250
H            2.44353952082252       -4.55362901159009       -0.44120901349615
H            4.88205589648458       -4.43682330070791       -0.24865481563946
H            6.01910460208237       -2.26219753467519        0.06061010088692
H            6.63461306583442        0.38625249921233        0.36691948241969
H            6.57464162840947        2.84842578447591        0.59507116325534
H            4.45021674456998        4.06101468768982        0.47783251154309
H            2.31967590140595        2.86962865631792        0.16243382439815
H            0.58115725464398       -0.76536932696257       -1.95043600503529
H           -1.83504696207635       -0.18484370529553       -2.10229267897078
