  45
        -74.35360963
 O         -3.8352931811        2.4390287868        0.5073030099
 S         -3.5380263797        1.3917707795       -0.4334452410
 O         -3.8852366764        1.5872853771       -1.8161132948
 C         -4.2911011200       -0.1377172587        0.1359933892
 C         -4.8272588671       -1.0182668179       -0.7822758075
 C         -5.3695316584       -2.2124012313       -0.3360660412
 C         -5.3636704978       -2.5088799858        1.0178026086
 C         -4.8230912911       -1.6159584008        1.9305966747
 C         -4.2802119205       -0.4215102569        1.4877707501
 C         -1.7863833268        1.0118529408       -0.3250429659
 C         -1.0333167910        1.5278931141        0.7119249851
 C          0.3062733069        1.2029850707        0.8102247165
 C          0.8899912787        0.3622683095       -0.1384275597
 N          2.2445386220        0.0393681572       -0.0490215184
 C          2.7840233857       -1.2315792988       -0.1463432062
 C          2.1460638174       -2.4559494946       -0.2800865140
 C          2.9320762085       -3.5923906056       -0.3199848443
 C          4.3192055730       -3.5217919751       -0.2191736778
 C          4.9574792928       -2.3083281634       -0.0569866971
 C          4.1885752607       -1.1530547659       -0.0143872609
 C          4.5071876845        0.2370492421        0.1611865808
 C          5.7016449036        0.9279149534        0.3160402633
 C          5.6592777444        2.3026914780        0.4344916530
 C          4.4480743511        2.9882136972        0.3823062492
 C          3.2467308317        2.3219604127        0.2293125589
 C          3.2811024827        0.9383692482        0.1382939705
 C          0.1161681872       -0.1497660080       -1.1818342375
 C         -1.2239950391        0.1727735388       -1.2689038592
 H         -4.8251993201       -0.7455058759       -1.8260635070
 H         -5.7973855478       -2.9085716745       -1.0412630243
 H         -5.7875736706       -3.4393404342        1.3651535874
 H         -4.8275914755       -1.8499853129        2.9845025495
 H         -3.8652380139        0.3009934889        2.1727347852
 H         -1.5100171279        2.1842994230        1.4229593648
 H          0.9038063634        1.5827607947        1.6246918789
 H          1.0702344783       -2.5257262460       -0.3382472573
 H          2.4584598763       -4.5568879276       -0.4282509578
 H          4.8983423599       -4.4321187246       -0.2586843661
 H          6.0310701720       -2.2537060579        0.0400415576
 H          6.6411013340        0.3968009128        0.3364206306
 H          6.5759938802        2.8595583814        0.5575945554
 H          4.4467751481        4.0653676709        0.4579493428
 H          2.3170443687        2.8667576763        0.1675956845
 H          0.5785995876       -0.7778398005       -1.9277063071
 H         -1.8371394669       -0.1959292623       -2.0759814384
