  45
        -74.24151214
 O         -3.9765073045        2.4307821079       -0.1283749666
 S         -3.6089471444        1.1955860541       -0.7719509611
 O         -4.0264611928        0.9698284001       -2.1320304378
 C         -4.1708139617       -0.1738525375        0.2397689328
 C         -4.3591067582       -1.4147289284       -0.3462091230
 C         -4.7038722519       -2.4916733433        0.4497817806
 C         -4.8446834318       -2.3244898709        1.8208340227
 C         -4.6505627800       -1.0763834698        2.3973576451
 C         -4.3062612694        0.0044629159        1.6065243085
 C         -1.8666171110        0.9506657167       -0.6369377510
 C         -1.1703955081        1.4909103529        0.4591319719
 C          0.1582804201        1.2342354902        0.6253393309
 C          0.8372242924        0.3680572695       -0.2789542125
 N          2.1700986872        0.0839199111       -0.1062706482
 C          2.7504939785       -1.1646569663       -0.2481713752
 C          2.1514663472       -2.3902162487       -0.4884126901
 C          2.9676210715       -3.5140243754       -0.5630733825
 C          4.3483052922       -3.4076537460       -0.3868793306
 C          4.9529142221       -2.1933804688       -0.1041778937
 C          4.1561921142       -1.0552685180       -0.0107764891
 C          4.4130338559        0.3103568164        0.3040336479
 C          5.5624751490        1.0282361920        0.6231584202
 C          5.4590174730        2.3955472225        0.8241114479
 C          4.2396246920        3.0623957783        0.6979820232
 C          3.0748461309        2.3664580134        0.3915805693
 C          3.1595171621        0.9937026783        0.2279071486
 C          0.1085083105       -0.2041605018       -1.3619011744
 C         -1.2129332269        0.0840609972       -1.5321968953
 H         -4.2555084919       -1.5072048325       -1.4156993775
 H         -4.8662362390       -3.4620907068        0.0041487090
 H         -5.1105450129       -3.1675331323        2.4407879621
 H         -4.7705474342       -0.9486185225        3.4629149404
 H         -4.1636099746        0.9900378079        2.0206452053
 H         -1.7128242338        2.1251387368        1.1417854724
 H          0.6932731702        1.6137694306        1.4822914818
 H          1.0812833825       -2.4825596995       -0.5898122378
 H          2.5256238808       -4.4795423655       -0.7489471828
 H          4.9549112588       -4.2983367949       -0.4563655050
 H          6.0190712493       -2.1281385119        0.0473116766
 H          6.5147820548        0.5275606685        0.7031010763
 H          6.3443541529        2.9641640487        1.0671497710
 H          4.1994150790        4.1317276221        0.8292379880
 H          2.1419329309        2.8923410213        0.2622418402
 H          0.6443765260       -0.7959318647       -2.0883258389
 H         -1.7744285921       -0.2948646360       -2.3707853884
