  63
  -105.805527834400       0.240469967119592      !
 N          2.5040284753       -2.1751146633       -2.0621347226
 C          1.9496646166       -1.4441244166       -1.3742074320
 C          1.1799275959       -0.5050560453       -0.6478697125
 C         -0.1991193887       -0.6800249776       -0.5909984028
 C         -1.0055625165        0.2930565092       -0.0160266003
 C         -2.4584413514        0.1107379303        0.0224248214
 N         -2.9286522976       -1.1203306775       -0.1294026622
 C         -4.2531451340       -1.2461840032       -0.0631051578
 C         -4.8189899387       -2.5897007654       -0.1557849863
 C         -3.9771585135       -3.6990255078       -0.2185706501
 C         -4.5140552848       -4.9694361323       -0.2921436304
 C         -5.8894414089       -5.1435483885       -0.3045969676
 C         -6.7305711369       -4.0429982129       -0.2436095151
 C         -6.2010484694       -2.7696018350       -0.1689119751
 N         -5.0856827873       -0.2203993868        0.0850926823
 C         -4.5274553532        0.9798736239        0.2012029993
 C         -5.4065949522        2.1401999833        0.3292839253
 C         -6.7873420157        1.9676957397        0.4073360218
 C         -7.6157424941        3.0675542995        0.5159178706
 C         -7.0762399337        4.3443151893        0.5466650037
 C         -5.7033051097        4.5209726985        0.4694140418
 C         -4.8688308936        3.4256750276        0.3613817941
 N         -3.2114036372        1.1887920379        0.2044581140
 C         -0.4261592462        1.4445834337        0.5158124181
 C          0.9430094774        1.6091801849        0.4977199073
 C          1.7619600837        0.6434251493       -0.0822292138
 N          3.1466942403        0.7941850029       -0.0861399684
 C          3.8930850350        1.9411079358       -0.3536796823
 C          3.4991886255        3.2077080537       -0.7431842411
 C          4.4901088084        4.1528105558       -0.9617338336
 C          5.8352777974        3.8451573591       -0.8095853102
 C          6.2451584523        2.5710269497       -0.4499018446
 C          5.2652287595        1.6228936906       -0.2286936261
 N          5.3235895859        0.2915402633        0.1127337672
 C          6.1538079051       -0.7536169450        0.4505269009
 C          7.5258307275       -0.8902465086        0.5369234270
 C          8.0126266067       -2.1293072209        0.9111695987
 C          7.1568082363       -3.1934912333        1.1888931335
 C          5.7841054003       -3.0648848441        1.1072897733
 C          5.2692604821       -1.8319326386        0.7345880922
 N          3.9523561472       -1.4454821531        0.5787616074
 C          4.0359926415       -0.2070843262        0.2007772224
 H         -0.6512157578       -1.5635380692       -1.0144795343
 H         -2.9095451146       -3.5450533479       -0.2030576803
 H         -3.8609786132       -5.8284370225       -0.3388618618
 H         -6.3064162623       -6.1384896556       -0.3609470710
 H         -7.8016600941       -4.1822614360       -0.2537540120
 H         -6.8396771699       -1.9016429056       -0.1208138426
 H         -7.1889197353        0.9669256608        0.3817469261
 H         -8.6857905190        2.9332202753        0.5761262515
 H         -7.7265419322        5.2028220686        0.6303754853
 H         -5.2861084009        5.5171010654        0.4923731109
 H         -3.7984813393        3.5439372241        0.2951179946
 H         -1.0657256519        2.1906058259        0.9609906964
 H          1.3932683733        2.4770036040        0.9551050577
 H          2.4594093377        3.4543267809       -0.8872396922
 H          4.2055760443        5.1501222879       -1.2596051965
 H          6.5772785618        4.6085829550       -0.9846292831
 H          7.2896543009        2.3242499270       -0.3497135563
 H          8.1901105885       -0.0681001097        0.3189074458
 H          9.0795742994       -2.2758963073        0.9870863515
 H          7.5827594073       -4.1440687976        1.4738471067
 H          5.1218416313       -3.8882527693        1.3183668413
  63
  -105.805508578700       0.235619666523302      !
 N          2.5225269317       -2.2861481013       -1.9704703577
 C          1.9558788866       -1.5182704505       -1.3348110066
 C          1.1807612299       -0.5394237289       -0.6693772362
 C         -0.1982191015       -0.7096371209       -0.6036328628
 C         -1.0029461886        0.2917660029       -0.0758539577
 C         -2.4549388331        0.1098670026       -0.0144727764
 N         -2.9314257753       -1.1155005621       -0.1933553647
 C         -4.2551505945       -1.2397788160       -0.1139042053
 C         -4.8286804876       -2.5751592173       -0.2620832579
 C         -6.2117267181       -2.7438308601       -0.2970504838
 C         -6.7497692070       -4.0090764276       -0.4281627975
 C         -5.9162001062       -5.1127112350       -0.5235293295
 C         -4.5398588788       -4.9498154714       -0.4892849987
 C         -3.9944433014       -3.6874729596       -0.3600561840
 N         -5.0819135105       -0.2198539538        0.0950310805
 C         -4.5180853618        0.9735979950        0.2486431099
 C         -5.3906242381        2.1261236049        0.4634541713
 C         -6.7689993213        1.9504135913        0.5709156483
 C         -7.5912852090        3.0426394518        0.7674664396
 C         -7.0480482315        4.3149828044        0.8577361469
 C         -5.6774977577        4.4947858144        0.7516411381
 C         -4.8492205296        3.4070481467        0.5554290327
 N         -3.2026526939        1.1823156394        0.2173439079
 C         -0.4217735403        1.4707680134        0.3907460732
 C          0.9467686644        1.6366738782        0.3552825858
 C          1.7637150678        0.6383657117       -0.1691273531
 N          3.1492368642        0.7837590418       -0.1760327501
 C          3.9014077222        1.9082968804       -0.5109319259
 C          3.5145401139        3.1411144791       -1.0021565852
 C          4.5096827624        4.0679943126       -1.2728935980
 C          5.8515444346        3.7740142240       -1.0717348772
 C          6.2543978385        2.5319290630       -0.6071843283
 C          5.2703916551        1.6018092319       -0.3337240627
 N          5.3205274276        0.3000900324        0.1088602872
 C          6.1414836500       -0.7134228443        0.5502608970
 C          7.5101972057       -0.8378064963        0.6900344308
 C          7.9864321937       -2.0409146177        1.1780929960
 C          7.1237335685       -3.0828163785        1.5129234249
 C          5.7542090898       -2.9662353342        1.3782913193
 C          5.2498253198       -1.7686132963        0.8930715297
 N          3.9374938020       -1.3987842638        0.6722639161
 C          4.0310388943       -0.1926410506        0.2034268093
 H         -0.6522129784       -1.6133712455       -0.9795532109
 H         -6.8442932764       -1.8734789183       -0.2219700882
 H         -7.8216504794       -4.1393568839       -0.4562367399
 H         -6.3397809362       -6.1013222065       -0.6242978371
 H         -3.8926800623       -5.8115182621       -0.5618354302
 H         -2.9259930804       -3.5427485769       -0.3272812697
 H         -7.1733885550        0.9530397307        0.4994155601
 H         -8.6594157523        2.9057184638        0.8508117031
 H         -7.6936211123        5.1675926646        1.0099803593
 H         -5.2572820690        5.4874466944        0.8217459519
 H         -3.7809388931        3.5283324854        0.4664365452
 H         -1.0604201470        2.2377924078        0.7997787773
 H          1.3987486625        2.5299163220        0.7590174696
 H          2.4771119753        3.3734799826       -1.1835480913
 H          4.2315793535        5.0391560200       -1.6520395389
 H          6.5970674010        4.5223432227       -1.2913583066
 H          7.2968013319        2.2956123829       -0.4675229676
 H          8.1800225797       -0.0329609031        0.4287259538
 H          9.0505541125       -2.1762793736        1.3006558011
 H          7.5415380410       -4.0055294022        1.8876074569
 H          5.0863661224       -3.7719425863        1.6349592723
  63
  -105.805250778200       0.179363731435465      !
 N          2.5700722638       -2.7109804450       -1.2258889409
 C          1.9777788917       -1.8090934289       -0.8380203047
 C          1.1868937351       -0.6945293482       -0.4723787557
 C         -0.1930347532       -0.8455509647       -0.3883040948
 C         -1.0029760475        0.2531951719       -0.1307927558
 C         -2.4561657371        0.0887502015       -0.0421751944
 N         -2.9674210470       -1.0871022776       -0.3847966682
 C         -4.2929553698       -1.1891484637       -0.3035129982
 C         -4.9109093482       -2.4517263405       -0.7016895228
 C         -6.2918129480       -2.6155540589       -0.6059899218
 C         -6.8744277439       -3.8070826051       -0.9908356809
 C         -6.0878738184       -4.8419605362       -1.4730548339
 C         -4.7138431607       -4.6843802821       -1.5690212681
 C         -4.1242521616       -3.4957003881       -1.1854266819
 N         -5.0852061358       -0.2073200196        0.1156438039
 C         -4.4866502668        0.9310328405        0.4497357295
 C         -5.3189549846        2.0326741576        0.9286678337
 C         -6.7044441255        1.8911380092        0.9816295906
 C         -7.4884575714        2.9328869104        1.4373694776
 C         -6.8996726184        4.1206047697        1.8432639102
 C         -5.5218512634        4.2659823595        1.7933405797
 C         -4.7317920763        3.2284042791        1.3385381592
 N         -3.1713779182        1.1278981971        0.3719775410
 C         -0.4259095682        1.5121225484        0.0367426026
 C          0.9420196118        1.6705091458       -0.0410934461
 C          1.7634259348        0.5742881099       -0.2881430387
 N          3.1494808706        0.7188620162       -0.3313402350
 C          3.8962760015        1.6821631581       -1.0059082659
 C          3.4997656544        2.7090162455       -1.8417721883
 C          4.4902833683        3.5002271669       -2.4035384278
 C          5.8357430683        3.2706821540       -2.1489464659
 C          6.2469209844        2.2296776248       -1.3313644739
 C          5.2677917641        1.4362160170       -0.7657217848
 N          5.3238700303        0.3338086436        0.0555977762
 C          6.1504451868       -0.4952465711        0.7803874760
 C          7.5208252559       -0.5739387506        0.9362451524
 C          8.0035859790       -1.5639025480        1.7724786105
 C          7.1453232903       -2.4440293377        2.4287202456
 C          5.7742393790       -2.3721765621        2.2787972178
 C          5.2632960460       -1.3873225021        1.4462291431
 N          3.9479868884       -1.1004186399        1.1367062575
 C          4.0356196703       -0.0995063005        0.3155847637
 H         -0.6432646813       -1.8156778632       -0.5295170301
 H         -6.8878251856       -1.7995015074       -0.2283761043
 H         -7.9445760808       -3.9331645794       -0.9165194997
 H         -6.5462572314       -5.7725615561       -1.7743436079
 H         -4.1031865411       -5.4917572711       -1.9459154241
 H         -3.0579248883       -3.3549881344       -1.2581393160
 H         -7.1448588340        0.9600926826        0.6613736057
 H         -8.5621286638        2.8223051485        1.4779775833
 H         -7.5151969460        4.9336687277        2.1996038603
 H         -5.0658277216        5.1919392276        2.1118037475
 H         -3.6580153392        3.3225825271        1.2967773406
 H         -1.0687728873        2.3545940620        0.2374017028
 H          1.3902373867        2.6402977393        0.1145838033
 H          2.4582540067        2.8836942995       -2.0609652656
 H          4.2059267456        4.3106190853       -3.0567698765
 H          6.5775761449        3.9088437326       -2.6033475790
 H          7.2917846299        2.0403699396       -1.1459468953
 H          8.1869071991        0.1059864588        0.4275409548
 H          9.0691481355       -1.6573981659        1.9190749485
 H          7.5678226166       -3.2022533483        3.0712233605
 H          5.1102111822       -3.0538058820        2.7843726015
  63
  -105.805067882900       0.147802496624550      !
 N          2.2209484942       -2.2616084129       -2.7920539932
 C          1.7317570233       -1.5002774633       -2.0868692726
 C          1.0820775789       -0.6261475486       -1.1868793840
 C         -0.3049918946       -0.6995879561       -1.0844913470
 C         -0.9791993458        0.0582852895       -0.1376651967
 C         -2.4388475658       -0.0221616209       -0.0405309202
 N         -3.0499647649       -0.9903449561       -0.7123535672
 C         -4.3748626897       -1.0377246025       -0.5829283296
 C         -5.0936257893       -2.1106606851       -1.2663737625
 C         -4.3891466334       -3.1131274791       -1.9306680483
 C         -5.0716440012       -4.1320107155       -2.5660924784
 C         -6.4575422418       -4.1588388598       -2.5459831817
 C         -7.1627114754       -3.1632626600       -1.8876323805
 C         -6.4868165076       -2.1422884811       -1.2485926706
 N         -5.0789354571       -0.1679088293        0.1342191585
 C         -4.3857372649        0.7760774118        0.7625846842
 C         -5.1213164503        1.7609351089        1.5524065993
 C         -4.4427478977        2.8030807635        2.1817989932
 C         -5.1425580303        3.7338075625        2.9244485141
 C         -6.5201425682        3.6340259951        3.0451865993
 C         -7.1995232023        2.5994126671        2.4207866084
 C         -6.5061810073        1.6649005624        1.6767809825
 N         -3.0580850405        0.8765542744        0.7147046184
 C         -0.2561550268        0.8743372903        0.7339938598
 C          1.1164379581        0.9537466007        0.6404499861
 C          1.8007849597        0.2315217366       -0.3345567049
 N          3.1869761746        0.3416282284       -0.4167916625
 C          3.9913772000        0.4195143768       -1.5544620478
 C          3.6585751940        0.5767258968       -2.8867732576
 C          4.6948222412        0.6704230842       -3.8022320470
 C          6.0241482003        0.6270238674       -3.4042828239
 C          6.3712108549        0.5157582269       -2.0674637161
 C          5.3447197818        0.4230915689       -1.1482323675
 N          5.3347123758        0.3605857154        0.2272479911
 C          6.1132824324        0.3187192310        1.3616324674
 C          7.4772319522        0.3120508448        1.5817807569
 C          7.9027452917        0.2600383779        2.8964498200
 C          6.9957935539        0.2166288597        3.9537296257
 C          5.6309942090        0.2243732302        3.7430244631
 C          5.1772152277        0.2754192755        2.4328751109
 N          3.8799557976        0.2934912897        1.9572978644
 C          4.0242304359        0.3385841237        0.6665652365
 H         -0.8622956711       -1.3558529894       -1.7349177510
 H         -3.3108072887       -3.0798519942       -1.9320913411
 H         -4.5242978611       -4.9102612982       -3.0774787266
 H         -6.9885074923       -4.9575218435       -3.0430222642
 H         -8.2423820655       -3.1869446184       -1.8737220900
 H         -7.0187440131       -1.3592469652       -0.7315812887
 H         -3.3710901249        2.8669253334        2.0750214812
 H         -4.6159760828        4.5411741854        3.4117947684
 H         -7.0645638566        4.3636254869        3.6267982892
 H         -8.2725944041        2.5238304102        2.5171366226
 H         -7.0177152020        0.8522701666        1.1855396622
 H         -0.7923452667        1.4393717294        1.4796154063
 H          1.6851675938        1.5665675215        1.3214667791
 H          2.6319569229        0.6332859392       -3.2102484327
 H          4.4585755024        0.7838707288       -4.8485936395
 H          6.8029044509        0.6971381081       -4.1475237000
 H          7.4021732719        0.5108626607       -1.7526683699
 H          8.1807316600        0.3435851649        0.7641139315
 H          8.9612833394        0.2516324455        3.1084040094
 H          7.3744302642        0.1747713784        4.9641883414
 H          4.9296854821        0.1891438856        4.5606601756
  63
  -105.804850809700       0.117468611275204      !
 N          2.2113470016       -2.7066660141       -2.3923051415
 C          1.7299205090       -1.8442404665       -1.8088506943
 C          1.0854929515       -0.8424360734       -1.0492573761
 C         -0.3030066621       -0.8903419512       -0.9495581129
 C         -0.9784715983       -0.0106379437       -0.1155216145
 C         -2.4396174790       -0.0597969088       -0.0275472654
 N         -3.0703874896       -1.0026727552       -0.7178056499
 C         -4.3976963799       -1.0116348345       -0.6078037895
 C         -5.1405977008       -2.0312139015       -1.3456220853
 C         -4.4596595301       -2.9907661801       -2.0935186959
 C         -5.1649447967       -3.9537439279       -2.7885001974
 C         -6.5507584544       -3.9677322019       -2.7441984109
 C         -7.2327112025       -3.0149453233       -2.0024481918
 C         -6.5339965548       -2.0493709577       -1.3044686586
 N         -5.0843746374       -0.1476240945        0.1332236229
 C         -4.3717138880        0.7638125589        0.7873779587
 C         -5.0848057858        1.7355062709        1.6136068514
 C         -6.4663111501        1.6408290295        1.7715734286
 C         -7.1366029559        2.5595302144        2.5555288453
 C         -6.4377084090        3.5780283627        3.1849258695
 C         -5.0635444790        3.6772436372        3.0296927306
 C         -4.3865314840        2.7609398330        2.2490068997
 N         -3.0431550737        0.8439678164        0.7346563984
 C         -0.2523852741        0.9019074863        0.6524889181
 C          1.1203203962        0.9645512468        0.5530307486
 C          1.8055008358        0.1213845574       -0.3197698438
 N          3.1898009766        0.2259153888       -0.4218964788
 C          3.9896817892        0.1333419450       -1.5626718448
 C          3.6518404338        0.0711686887       -2.9016099690
 C          4.6842274258        0.0323927164       -3.8256199631
 C          6.0151285333        0.0734748575       -3.4330144235
 C          6.3667512526        0.1865549524       -2.0975251546
 C          5.3438975332        0.2272045709       -1.1703995287
 N          5.3388810500        0.3944631402        0.1961794791
 C          6.1221179215        0.5715606901        1.3138947598
 C          7.4866825536        0.6357874849        1.5208633847
 C          7.9179133203        0.8319746236        2.8198681326
 C          7.0158415477        0.9593156162        3.8746573828
 C          5.6505520335        0.8960288564        3.6769585249
 C          5.1910355737        0.6989036033        2.3826912172
 N          3.8922399732        0.6046167343        1.9207323584
 C          4.0305208389        0.4239643071        0.6410416062
 H         -0.8605830472       -1.6236190274       -1.5112908273
 H         -3.3814404013       -2.9671163428       -2.1146449152
 H         -4.6354224879       -4.6967460336       -3.3676651899
 H         -7.0996475873       -4.7212781247       -3.2900393319
 H         -8.3118973773       -3.0268600326       -1.9726999148
 H         -7.0474592856       -1.3002103481       -0.7220656114
 H         -6.9938495289        0.8420198220        1.2740450121
 H         -8.2077820345        2.4858599801        2.6768971228
 H         -6.9646578536        4.2957270946        3.7967174955
 H         -4.5219105947        4.4722563558        3.5207532157
 H         -3.3178931593        2.8234530180        2.1166304002
 H         -0.7877792341        1.5594401435        1.3185005809
 H          1.6891670998        1.6593808902        1.1500797023
 H          2.6242935087        0.0619831544       -3.2267162874
 H          4.4429301451       -0.0263040207       -4.8753150728
 H          6.7908795014        0.0344505724       -4.1816632100
 H          7.3982597988        0.2511909969       -1.7910382371
 H          8.1861859278        0.5362751218        0.7052510835
 H          8.9770374916        0.8879768251        3.0214491438
 H          7.3989911126        1.1117134686        4.8726969214
 H          4.9533590665        0.9937390448        4.4930078151
  63
  -105.803889514600       4.247576354992591E-002 !
 N          2.5422418235       -2.6012395303       -1.4922764378
 C          1.9630146713       -1.7393833828       -1.0061370423
 C          1.1822472301       -0.6644757581       -0.5197330733
 C         -0.1977726385       -0.8192558041       -0.4411043695
 C         -1.0039163897        0.2513632198       -0.0753024084
 C         -2.4580435017        0.0875027760       -0.0075379824
 N         -2.9608284113       -1.1065369511       -0.2956590397
 C         -4.2870084698       -1.2094493253       -0.2301038730
 C         -4.8913867552       -2.5031542384       -0.5394427446
 C         -6.2752664397       -2.6606247321       -0.4847049346
 C         -6.8432551621       -3.8850085410       -0.7774324303
 C         -6.0390554163       -4.9592838726       -1.1261320471
 C         -4.6621278098       -4.8076760528       -1.1821129634
 C         -4.0871983384       -3.5861414373       -0.8906520818
 N         -5.0910881880       -0.2028634440        0.0984701537
 C         -4.5018108221        0.9559111960        0.3737832248
 C         -5.3479199801        2.0896844175        0.7410993326
 C         -6.7333560479        1.9442206466        0.7839015912
 C         -7.5305232048        3.0175803156        1.1304365056
 C         -6.9551550162        4.2413674344        1.4362253078
 C         -5.5774942266        4.3911748895        1.3951146172
 C         -4.7744098665        3.3219500355        1.0495423761
 N         -3.1840366418        1.1461942104        0.3325155761
 C         -0.4210439599        1.4848766836        0.2164837514
 C          0.9471086662        1.6443441274        0.1531401755
 C          1.7642026506        0.5777128057       -0.2119625732
 N          3.1489112060        0.7288235536       -0.2557872551
 C          3.8811051443        1.7771874190       -0.8095762863
 C          3.4689738431        2.8924712839       -1.5145356877
 C          4.4471916845        3.7596079921       -1.9768958646
 C          5.7963173506        3.5192484271       -1.7537876391
 C          6.2235472330        2.3909233387       -1.0715847072
 C          5.2565367672        1.5210607094       -0.6061513342
 N          5.3299612667        0.3261580559        0.0717240375
 C          6.1711185094       -0.5782789985        0.6800314870
 C          7.5435368305       -0.6593164314        0.8159711561
 C          8.0440889859       -1.7432116833        1.5137092233
 C          7.2009445683       -2.7116972897        2.0551340730
 C          5.8279182572       -2.6374099146        1.9253140468
 C          5.2991322496       -1.5589213618        1.2313283101
 N          3.9783979395       -1.2505759150        0.9689018217
 C          4.0483792611       -0.1524270117        0.2813378271
 H         -0.6520218281       -1.7688267819       -0.6770465064
 H         -6.8851290660       -1.8140704457       -0.2111488263
 H         -7.9157164378       -4.0063662891       -0.7345427847
 H         -6.4859552036       -5.9158918678       -1.3543728139
 H         -4.0374894384       -5.6458739335       -1.4537940760
 H         -3.0176925798       -3.4516179539       -0.9283970572
 H         -7.1633337580        0.9848485887        0.5430644700
 H         -8.6041410042        2.9037805998        1.1630838145
 H         -7.5809264751        5.0793371550        1.7066783511
 H         -5.1318846603        5.3455669759        1.6347180774
 H         -3.7009222665        3.4208144845        1.0120721912
 H         -1.0597082062        2.3048907282        0.5041644627
 H          1.3994541790        2.5903816805        0.4098357686
 H          2.4249422136        3.0783645684       -1.7110753529
 H          4.1499557628        4.6395970292       -2.5260221637
 H          6.5281565085        4.2186609387       -2.1269543386
 H          7.2713557557        2.1938040892       -0.9130152455
 H          8.1976453860        0.0889587204        0.3953102331
 H          9.1117601626       -1.8418641210        1.6403019418
 H          7.6372289970       -3.5421287075        2.5901924609
 H          5.1758311663       -3.3872295519        2.3420324701
  63
  -105.803753960900       3.679976347196125E-002 !
 N          2.5174771308       -2.2326953074       -1.9676984037
 C          1.9550737346       -1.4812987708       -1.3089049453
 C          1.1808861854       -0.5189046843       -0.6187936263
 C         -0.1980624547       -0.6904938871       -0.5599538912
 C         -1.0046795768        0.3004504325       -0.0157920896
 C         -2.4573699980        0.1176755559        0.0268314095
 N         -2.9276355714       -1.1107944172       -0.1461231220
 C         -4.2518452312       -1.2388773477       -0.0828615909
 C         -4.8183399364       -2.5780535199       -0.2227666340
 C         -6.2006055097       -2.7564463167       -0.2372151488
 C         -6.7316131780       -4.0251472767       -0.3630951425
 C         -5.8916633626       -5.1226026396       -0.4749621564
 C         -4.5160954538       -4.9500731226       -0.4609824014
 C         -3.9777827119       -3.6843089157       -0.3357217141
 N         -5.0843594028       -0.2184338339        0.0985425895
 C         -4.5265179884        0.9792303852        0.2405038969
 C         -5.4075788716        2.1331917985        0.4076690125
 C         -6.7838418150        1.9507141126        0.5294871962
 C         -7.6156627474        3.0441885769        0.6717607034
 C         -7.0841884997        4.3244824136        0.6908504534
 C         -5.7155739680        4.5109645350        0.5706447107
 C         -4.8775006692        3.4220575273        0.4308903733
 N         -3.2110679418        1.1912375114        0.2322373437
 C         -0.4251536134        1.4680887239        0.4799315206
 C          0.9441177222        1.6327358169        0.4554219371
 C          1.7626650146        0.6473513117       -0.0905805337
 N          3.1479442391        0.7953896178       -0.0982025280
 C          3.8969918049        1.9227416430       -0.4318992899
 C          3.5041308830        3.1694343871       -0.8816820664
 C          4.4970093839        4.0962758214       -1.1610001520
 C          5.8423866266        3.7892953137       -1.0086275165
 C          6.2504988148        2.5339187068       -0.5862683054
 C          5.2687404300        1.6039418240       -0.3043250413
 N          5.3239370995        0.2917602758        0.1052669896
 C          6.1520644693       -0.7392994942        0.4888977324
 C          7.5240642826       -0.8789557734        0.5701255472
 C          8.0079852958       -2.0993262647        1.0047075180
 C          7.1493904515       -3.1427780455        1.3454124116
 C          5.7767023757       -3.0110082565        1.2690870037
 C          5.2647151004       -1.7964895816        0.8366048676
 N          3.9483559086       -1.4120688078        0.6714596925
 C          4.0348870298       -0.1948702714        0.2302048633
 H         -0.6510484397       -1.5854720786       -0.9574175221
 H         -6.8380779318       -1.8905981566       -0.1507344175
 H         -7.8028540079       -4.1631409225       -0.3738449432
 H         -6.3096251863       -6.1139793491       -0.5719762904
 H         -3.8640054567       -5.8068132942       -0.5467326138
 H         -2.9099392432       -3.5321611976       -0.3195556241
 H         -7.1791721379        0.9473043081        0.5114179471
 H         -8.6821254076        2.9020016043        0.7672504522
 H         -7.7371669443        5.1781406741        0.7996470880
 H         -5.3043298977        5.5097806217        0.5874453192
 H         -3.8107773637        3.5480709297        0.3298977120
 H         -1.0651311888        2.2271870624        0.9017272864
 H          1.3950266418        2.5157920844        0.8821390415
 H          2.4634465071        3.4139086459       -1.0235213450
 H          4.2139975659        5.0785913996       -1.5062582735
 H          6.5859013379        4.5385386864       -1.2318520508
 H          7.2949340070        2.2871982695       -0.4851048517
 H          8.1906395879       -0.0729425275        0.3040864829
 H          9.0748703501       -2.2479884846        1.0778192449
 H          7.5731131242       -4.0797415540        1.6753016237
 H          5.1121618003       -3.8185817465        1.5284235917
