  63
       -106.15620937
 N          1.9925975908        3.6746793077       -0.6822808736
 C          1.5760941096        2.6556074560       -0.3598125865
 C          1.0092352779        1.4032939963       -0.0338325388
 C         -0.3768843891        1.2789411254       -0.0919249257
 C         -0.9799666695        0.0429135080        0.0932139234
 C         -2.4389467529       -0.0755084063        0.0436484017
 N         -3.1396934252        1.0158136729       -0.2415051113
 C         -4.4622429403        0.8625253100       -0.2774922804
 C         -5.2804855465        2.0325754011       -0.5893921137
 C         -4.6744632414        3.2514461227       -0.8908184520
 C         -5.4508545925        4.3548773647       -1.1864680787
 C         -6.8336784553        4.2527621444       -1.1835594558
 C         -7.4412533014        3.0428464843       -0.8835383294
 C         -6.6711969140        1.9350966213       -0.5875402814
 N         -5.0796798893       -0.2917729698       -0.0461261001
 C         -4.2998955798       -1.3308301820        0.2346167580
 C         -4.9354063611       -2.6201525397        0.4975175237
 C         -6.3158335361       -2.7604407114        0.3663141145
 C         -6.9127152924       -3.9814067278        0.6130188432
 C         -6.1410862309       -5.0686116207        0.9931593335
 C         -4.7676575908       -4.9336876783        1.1264139959
 C         -4.1638500265       -3.7163965335        0.8793344180
 N         -2.9705960918       -1.2665229626        0.2902980297
 C         -0.1839564422       -1.0849297221        0.3032569114
 C          1.1872575287       -0.9708168338        0.3731677135
 C          1.8012062839        0.2732251681        0.2404665509
 N          3.1863468894        0.3639596980        0.3443711815
 C          3.9516279507        1.3557260652        0.9612114871
 C          3.5783700759        2.4205515244        1.7596993680
 C          4.5840679222        3.2224670872        2.2760560458
 C          5.9242536297        2.9637908052        2.0228496862
 C          6.3141228455        1.8706963026        1.2658136007
 C          5.3181233752        1.0657070663        0.7486855378
 N          5.3559382374       -0.1050282739        0.0251611236
 C          6.1749874666       -1.0443431817       -0.5587539833
 C          7.5456031556       -1.1707480397       -0.6788879617
 C          8.0188395738       -2.2827764233       -1.3506787544
 C          7.1514903452       -3.2347402131       -1.8835951008
 C          5.7804304283       -3.1161935027       -1.7684999592
 C          5.2790246535       -2.0088335463       -1.0995546836
 N          3.9661250602       -1.6611287544       -0.8454640534
 C          4.0626473197       -0.5425070509       -0.1906860327
 H         -0.9893547173        2.1434175931       -0.2961083534
 H         -3.5975090698        3.3125314663       -0.8914625476
 H         -4.9793469681        5.2988404981       -1.4199038430
 H         -7.4382638652        5.1179462914       -1.4137461688
 H         -8.5182855041        2.9676689621       -0.8791004629
 H         -7.1262421859        0.9856537040       -0.3518055751
 H         -6.9005525891       -1.9035743789        0.0699846803
 H         -7.9831004492       -4.0891504419        0.5117810603
 H         -6.6106960776       -6.0221237437        1.1863882227
 H         -4.1692469813       -5.7823663537        1.4234024393
 H         -3.0969122515       -3.5932521097        0.9788258247
 H         -0.6641542059       -2.0437231754        0.4159185470
 H          1.8096119678       -1.8382725271        0.5249498961
 H          2.5444229240        2.6233836078        1.9865112033
 H          4.3143836137        4.0647634528        2.8935807127
 H          6.6780604184        3.6149155937        2.4370951448
 H          7.3547752579        1.6480602707        1.0937738270
 H          8.2181931031       -0.4338843029       -0.2676876423
 H          9.0840091028       -2.4166624882       -1.4647118947
 H          7.5669076630       -4.0873088899       -2.3999929306
 H          5.1100528454       -3.8521481676       -2.1814483650
  63
       -106.15598219
 N          2.0110743536        3.7058009596       -0.2562606494
 C          1.5854062942        2.6626575209       -0.0397495186
 C          1.0113820662        1.3869590366        0.1583864213
 C         -0.3741840092        1.2697717210        0.0789363639
 C         -0.9778841354        0.0227828918        0.1562171491
 C         -2.4364268216       -0.0900986181        0.0762753172
 N         -3.1195537433        0.9857068666       -0.2954356440
 C         -4.4408476173        0.8348627251       -0.3714539167
 C         -5.2376079627        1.9753317743       -0.8180109571
 C         -4.6094404402        3.1383787314       -1.2598760852
 C         -5.3656226068        4.2103973494       -1.6919114153
 C         -6.7497267742        4.1326072135       -1.6853987421
 C         -7.3791368466        2.9783611340       -1.2456029442
 C         -6.6293249276        1.9018261991       -0.8138059404
 N         -5.0745551152       -0.2933685529       -0.0679618229
 C         -4.3120906026       -1.3152825411        0.3072936350
 C         -4.9687446606       -2.5713547770        0.6621570813
 C         -4.2153496636       -3.6523131351        1.1166707094
 C         -4.8406695101       -4.8365632851        1.4543711368
 C         -6.2177285130       -4.9526700487        1.3425635903
 C         -6.9713710030       -3.8802017873        0.8912400272
 C         -6.3527567706       -2.6930010012        0.5514586717
 N         -2.9827722904       -1.2613279803        0.3783588141
 C         -0.1859439453       -1.1195571507        0.2843320536
 C          1.1857581196       -1.0138241539        0.3638416469
 C          1.8007815329        0.2356907974        0.3316514632
 N          3.1880946267        0.3150789167        0.4289757583
 C          3.9631995025        1.2350635588        1.1362676764
 C          3.6023008661        2.2028366200        2.0547954512
 C          4.6159465242        2.9466549884        2.6378122739
 C          5.9514405744        2.7240236074        2.3308179874
 C          6.3292743644        1.7265300211        1.4464164788
 C          5.3255295910        0.9795993872        0.8617384794
 N          5.3508202392       -0.0975859713        0.0044255649
 C          6.1574936092       -0.9477921671       -0.7175022531
 C          7.5245887923       -1.0460785008       -0.8914522068
 C          7.9834155978       -2.0559239062       -1.7171712051
 C          7.1056280433       -2.9367211619       -2.3464339737
 C          5.7380112762       -2.8467536809       -2.1771291495
 C          5.2510477887       -1.8415755471       -1.3540277775
 N          3.9439486119       -1.5395234122       -1.0229105867
 C          4.0540740193       -0.5132627610       -0.2332899677
 H         -0.9855156398        2.1488658546       -0.0544538235
 H         -3.5314008527        3.1801432222       -1.2632526522
 H         -4.8773986960        5.1098327226       -2.0374994411
 H         -7.3384302377        4.9723104002       -2.0248000465
 H         -8.4576152145        2.9208069620       -1.2417504418
 H         -7.1017334276        0.9958958331       -0.4680863477
 H         -3.1452354225       -3.5435327119        1.2000390416
 H         -4.2561272417       -5.6737439583        1.8066134393
 H         -6.7037804522       -5.8803274772        1.6074924926
 H         -8.0438478526       -3.9737583907        0.8045314581
 H         -6.9226858225       -1.8487518190        0.1968072632
 H         -0.6683814676       -2.0832606204        0.3196171911
 H          1.8069203331       -1.8916348472        0.4437956529
 H          2.5717555643        2.3743630541        2.3200036055
 H          4.3570221406        3.7139781788        3.3503631542
 H          6.7116366201        3.3279119787        2.8011424623
 H          7.3668065826        1.5320595650        1.2279863535
 H          8.2054155220       -0.3635899150       -0.4065093403
 H          9.0453726947       -2.1635760758       -1.8788999016
 H          7.5096625220       -3.7089181736       -2.9840957480
 H          5.0591632075       -3.5269343834       -2.6651073325
  63
       -106.15472673
 N          2.3596103651        2.8328501553       -1.3651111576
 C          1.8402358051        1.9142240057       -0.9167723478
 C          1.1315552222        0.8639820109       -0.2871878788
 C         -0.2528528248        0.8185292882       -0.4134518198
 C         -0.9897846590       -0.1315827607        0.2823372884
 C         -2.4489138803       -0.1666594988        0.1572794691
 N         -3.0237013848        0.7244794194       -0.6408608896
 C         -4.3517685184        0.6629149739       -0.7188960864
 C         -5.0339891043        1.6231288834       -1.5833036128
 C         -6.4229311112        1.5986182214       -1.6980010160
 C         -7.0645974878        2.5075515494       -2.5162434944
 C         -6.3294294984        3.4456151613       -3.2247354345
 C         -4.9477812147        3.4741361173       -3.1139067249
 C         -4.2993734284        2.5682117983       -2.2975069269
 N         -5.0910341055       -0.2200863573       -0.0544299387
 C         -4.4321586633       -1.0763070767        0.7192450568
 C         -5.2054330058       -2.0656218858        1.4672868658
 C         -6.5955252987       -2.0872535749        1.3693056064
 C         -7.3237724883       -3.0226676268        2.0780506130
 C         -6.6744827213       -3.9416091152        2.8880997445
 C         -5.2918721819       -3.9242278576        2.9889342725
 C         -4.5574667483       -2.9916619412        2.2828351843
 N         -3.1070762020       -1.0848411252        0.8553445625
 C         -0.3327738282       -1.0441972382        1.1081135787
 C          1.0403892811       -1.0145494307        1.2298837119
 C          1.7884892793       -0.0667336788        0.5366040670
 N          3.1781471360       -0.0475148702        0.6398248154
 C          3.9550964247       -0.1534082952        1.7917768257
 C          3.5901455140       -0.2306370021        3.1227631615
 C          4.6046157382       -0.2960466806        4.0657291669
 C          5.9428878986       -0.2747320562        3.6965904730
 C          6.3216778769       -0.1706495330        2.3674070025
 C          5.3183113778       -0.1056484622        1.4200797154
 N          5.3401285440        0.0221871229        0.0504518089
 C          6.1429269302        0.0801372582       -1.0665738750
 C          7.5113847683        0.0834239712       -1.2560232089
 C          7.9661849735        0.1531305669       -2.5600621469
 C          7.0826586821        0.2181334816       -3.6357729166
 C          5.7133540908        0.2136384650       -3.4553350183
 C          5.2301531659        0.1425184927       -2.1569409260
 N          3.9231333610        0.1161754382       -1.7105229970
 C          4.0388598898        0.0585587130       -0.4194535452
 H         -0.7644162769        1.5300816284       -1.0424924876
 H         -6.9784653319        0.8616035469       -1.1397800683
 H         -8.1409337653        2.4877859148       -2.6048434386
 H         -6.8338774426        4.1552229849       -3.8641892111
 H         -4.3769907479        4.2055936334       -3.6668330801
 H         -3.2251396988        2.5761115354       -2.2009496545
 H         -7.0835156611       -1.3648892332        0.7342203684
 H         -8.4010700254       -3.0383905209        2.0015378143
 H         -7.2464442514       -4.6719857527        3.4415778340
 H         -4.7885828829       -4.6419619858        3.6201232782
 H         -3.4812382227       -2.9634840513        2.3498574838
 H         -0.9182218803       -1.7791310141        1.6374510587
 H          1.5503171761       -1.7412140207        1.8442356126
 H          2.5539756498       -0.2274694227        3.4219757539
 H          4.3447141245       -0.3614139761        5.1109314721
 H          6.7040650001       -0.3301562114        4.4591895704
 H          7.3601482960       -0.1360801525        2.0805496868
 H          8.1966364083        0.0352576605       -0.4236533911
 H          9.0292552459        0.1588647876       -2.7485521360
 H          7.4838057845        0.2737848538       -4.6368882186
 H          5.0299465915        0.2660203350       -4.2867865422
  63
       -106.15460656
 N          2.3840473605        2.6517585373       -1.6558940040
 C          1.8526816594        1.7995095227       -1.1027431961
 C          1.1345202379        0.8377447498       -0.3539449206
 C         -0.2493473283        0.7814632504       -0.4797291089
 C         -0.9899682001       -0.0826715392        0.3167078642
 C         -2.4476079813       -0.1390106914        0.1797127453
 N         -3.0320679995        0.7714099795       -0.5890142595
 C         -4.3589562061        0.6930652347       -0.6744044702
 C         -5.0561000626        1.6922869086       -1.4806681051
 C         -6.4413864171        1.6333966259       -1.6235188575
 C         -7.0989498939        2.5839575421       -2.3793831005
 C         -6.3833828619        3.5981809958       -2.9970313256
 C         -5.0053140353        3.6604065312       -2.8589891823
 C         -4.3409769021        2.7128186668       -2.1050291995
 N         -5.0846776340       -0.2396526300       -0.0655476819
 C         -4.4153876957       -1.1177635733        0.6738479678
 C         -5.1729463209       -2.1685886471        1.3503036492
 C         -6.5625648676       -2.2045630547        1.2498858955
 C         -7.2758344554       -3.2004678691        1.8878802504
 C         -6.6118300685       -4.1660893936        2.6286669742
 C         -5.2295775412       -4.1351582812        2.7308427330
 C         -4.5100169685       -3.1420368307        2.0955873507
 N         -3.0933310187       -1.0954272897        0.8363622398
 C         -0.3392798269       -0.8903395063        1.2495792664
 C          1.0331717138       -0.8439331768        1.3784133739
 C          1.7856249024        0.0106935040        0.5778699062
 N          3.1762091572        0.0369007947        0.6753609592
 C          3.9598404152        0.1013156341        1.8253465529
 C          3.6020588108        0.2063851466        3.1562368325
 C          4.6219493084        0.2848663986        4.0923914337
 C          5.9580129586        0.2689901349        3.7149637572
 C          6.3292085356        0.1876983130        2.3819958260
 C          5.3206503024        0.1078231014        1.4414336294
 N          5.3340439160        0.0394108363        0.0673328386
 C          6.1295866958       -0.0611592871       -1.0519868133
 C          7.4966730754       -0.0773609993       -1.2500725104
 C          7.9426264062       -0.1988007552       -2.5534337975
 C          7.0519764760       -0.2997601777       -3.6204112992
 C          5.6839431787       -0.2847334843       -3.4312819167
 C          5.2096589191       -0.1649390989       -2.1332549700
 N          3.9056176271       -0.1336893127       -1.6786604446
 C          4.0299692496       -0.0018779466       -0.3937838120
 H         -0.7565854192        1.4136297613       -1.1916766507
 H         -6.9815292470        0.8370556897       -1.1358187592
 H         -8.1724417452        2.5377061582       -2.4894425242
 H         -6.9003129938        4.3410094266       -3.5868598584
 H         -4.4500495598        4.4520851796       -3.3403773772
 H         -3.2704390697        2.7494341255       -1.9835838333
 H         -7.0620319330       -1.4448176408        0.6696325300
 H         -8.3527663851       -3.2274865438        1.8095567606
 H         -7.1721183304       -4.9440920299        3.1263720267
 H         -4.7148588697       -4.8898003236        3.3073429139
 H         -3.4339285465       -3.1049627360        2.1609265347
 H         -0.9288749231       -1.5566981307        1.8592015913
 H          1.5387234696       -1.4880309007        2.0821036752
 H          2.5671298660        0.2387164362        3.4581992590
 H          4.3682559634        0.3638960427        5.1381921212
 H          6.7236124517        0.3304695274        4.4726738509
 H          7.3658646817        0.1917060870        2.0865553272
 H          8.1877285361        0.0022314024       -0.4249356697
 H          9.0044111629       -0.2145977974       -2.7484163871
 H          7.4462342843       -0.3917713835       -4.6215677816
 H          4.9947681051       -0.3606775946       -4.2561629109
  63
       -106.15451598
 N          2.3413092995        3.0737508298       -0.7366785549
 C          1.8343952152        2.0770875931       -0.4827309067
 C          1.1322255067        0.9199464604       -0.0707448773
 C         -0.2524080220        0.8960633392       -0.2015166771
 C         -0.9859671883       -0.1657258344        0.3117465829
 C         -2.4442447522       -0.1829935423        0.1765951550
 N         -2.9943849827        0.6650949521       -0.6828558834
 C         -4.3209141974        0.6057751068       -0.7868095586
 C         -4.9735411735        1.4896641396       -1.7495933317
 C         -6.3644373050        1.5453786954       -1.8188287652
 C         -6.9772215362        2.3756854943       -2.7367680935
 C         -6.2109108414        3.1532571379       -3.5912224617
 C         -4.8270556029        3.1012090971       -3.5259648315
 C         -4.2071223027        2.2745289387       -2.6094663456
 N         -5.0826614749       -0.2126210192       -0.0674998453
 C         -4.4477588168       -1.0168501110        0.7786328709
 C         -5.2474323027       -1.9213349838        1.6021695095
 C         -6.6308280609       -1.9753529191        1.4420505325
 C         -7.3842295442       -2.8266449858        2.2265450495
 C         -6.7667824338       -3.6281663883        3.1744032393
 C         -5.3909297182       -3.5780930697        3.3372400969
 C         -4.6312824639       -2.7294302057        2.5559443891
 N         -3.1235518206       -1.0468526959        0.9217463752
 C         -0.3274578493       -1.2113259345        0.9587464731
 C          1.0471992374       -1.2096996252        1.0683157667
 C          1.7932090678       -0.1518112899        0.5551218381
 N          3.1842834334       -0.1599673758        0.6306409800
 C          3.9920801554       -0.5216577572        1.7072784920
 C          3.6656902066       -0.8824536795        3.0011499491
 C          4.7060833129       -1.1650772507        3.8731704466
 C          6.0330424857       -1.0806447110        3.4737554109
 C          6.3742470942       -0.6921066232        2.1878739256
 C          5.3448447350       -0.4091504839        1.3112678613
 N          5.3300766536        0.0139527924        0.0022098419
 C          6.1012052759        0.3069195697       -1.1003068628
 C          7.4633237120        0.3409677877       -1.3280321712
 C          7.8805468669        0.6913101200       -2.5991164201
 C          6.9671864554        0.9980264468       -3.6059021306
 C          5.6039268505        0.9644610660       -3.3874739813
 C          5.1583578759        0.6136294100       -2.1215651318
 N          3.8647883238        0.5013291878       -1.6505980394
 C          4.0168659332        0.1637497848       -0.4071138557
 H         -0.7660818505        1.7117308614       -0.6862718807
 H         -6.9440127618        0.9335752994       -1.1457173973
 H         -8.0551833122        2.4193821445       -2.7894901761
 H         -6.6928475253        3.8005131811       -4.3093612450
 H         -4.2323407064        3.7066022976       -4.1941331859
 H         -3.1316470335        2.2182814244       -2.5478678135
 H         -7.0934475906       -1.3453297808        0.6987796877
 H         -8.4562927960       -2.8681091677        2.1018143273
 H         -7.3586029552       -4.2919418395        3.7876216663
 H         -4.9128169528       -4.2033582619        4.0770530163
 H         -3.5600965408       -2.6741188954        2.6715150842
 H         -0.9114418987       -2.0296066293        1.3497490273
 H          1.5588928118       -2.0415207470        1.5281126193
 H          2.6394868604       -0.9300195605        3.3294758967
 H          4.4757486514       -1.4541632283        4.8868880867
 H          6.8151862982       -1.3110381729        4.1802999202
 H          7.4042387711       -0.6084752254        1.8811511730
 H          8.1722170821        0.1063476306       -0.5488350508
 H          8.9376335977        0.7296684278       -2.8154425634
 H          7.3396401020        1.2691856702       -4.5826820351
 H          4.8968568555        1.2034185005       -4.1646536323
  63
       -106.15439508
 N          2.3410589777        3.0458933636       -0.6606307048
 C          1.8374139613        2.0384791530       -0.4453135854
 C          1.1351473707        0.8674869632       -0.0746097972
 C         -0.2496930204        0.8521491335       -0.2026182477
 C         -0.9859617421       -0.2218116852        0.2803211085
 C         -2.4454071509       -0.2213657860        0.1556143408
 N         -2.9888850552        0.6342210341       -0.7004256204
 C         -4.3165036034        0.5919339089       -0.7982993708
 C         -4.9616184395        1.4831455407       -1.7592630370
 C         -6.3517984140        1.5299942809       -1.8481207802
 C         -6.9571503861        2.3693077803       -2.7627348421
 C         -6.1840274805        3.1658471334       -3.5935442226
 C         -4.8008782185        3.1225648867       -3.5088464915
 C         -4.1884166984        2.2859024466       -2.5964229478
 N         -5.0850514832       -0.2129157580       -0.0710831322
 C         -4.4566175601       -1.0206502885        0.7764871425
 C         -5.2663062536       -1.8974611504        1.6199599229
 C         -6.6476792284       -1.9561273004        1.4450186406
 C         -7.4122357630       -2.7739991835        2.2539643166
 C         -6.8081449773       -3.5354249682        3.2425424370
 C         -5.4341409806       -3.4808627658        3.4199310541
 C         -4.6630263896       -2.6674268013        2.6128865573
 N         -3.1317137096       -1.0732753145        0.9079579613
 C         -0.3296846148       -1.2914106818        0.8887861758
 C          1.0458680588       -1.2996671938        0.9907667994
 C          1.7943211030       -0.2269794868        0.5129801160
 N          3.1852798704       -0.2377755058        0.5910129181
 C          3.9898959565       -0.6149318607        1.6651145945
 C          3.6589822924       -1.0318796956        2.9408644517
 C          4.6967234229       -1.3182265525        3.8149126074
 C          6.0254231250       -1.1831460089        3.4356966721
 C          6.3704491963       -0.7383523296        2.1691940548
 C          5.3436867026       -0.4516127687        1.2907080056
 N          5.3329298208        0.0191645334       -0.0019194507
 C          6.1091359551        0.3811346917       -1.0801278621
 C          7.4723816092        0.4729822171       -1.2841147257
 C          7.8953482492        0.8908714178       -2.5326390586
 C          6.9863447460        1.2059819503       -3.5408426757
 C          5.6220709730        1.1149706432       -3.3460725217
 C          5.1708034613        0.6974788028       -2.1025752053
 N          3.8752083724        0.5272471270       -1.6550170257
 C          4.0212872104        0.1464993089       -0.4231656515
 H         -0.7618826700        1.6854278519       -0.6581047392
 H         -6.9366344333        0.9042922009       -1.1923717582
 H         -8.0344999771        2.4051027713       -2.8316644978
 H         -6.6600468360        3.8204642512       -4.3089557200
 H         -4.2009151641        3.7429459217       -4.1582692272
 H         -3.1135277008        2.2370663409       -2.5194254036
 H         -7.1000311430       -1.3557897830        0.6714448508
 H         -8.4826786166       -2.8198532880        2.1171157463
 H         -7.4086552842       -4.1723055555        3.8755672954
 H         -4.9661963375       -4.0765797502        4.1901171396
 H         -3.5933711309       -2.6074061681        2.7402154893
 H         -0.9156204486       -2.1191936730        1.2564378734
 H          1.5559576083       -2.1490958246        1.4191058769
 H          2.6310630811       -1.1215562586        3.2543133687
 H          4.4626766757       -1.6526294294        4.8137317056
 H          6.8053730915       -1.4197683316        4.1425890799
 H          7.4010735432       -0.6147932666        1.8785112335
 H          8.1778246624        0.2320259103       -0.5037001367
 H          8.9533581971        0.9786115275       -2.7291234663
 H          7.3630857148        1.5325575907       -4.4988004020
 H          4.9184196354        1.3623039494       -4.1237264388
  63
       -106.15419909
 N          2.3234216140        3.1019854188       -0.4827840956
 C          1.8290664291        2.0792797667       -0.3259527018
 C          1.1327133359        0.8851059326       -0.0243698882
 C         -0.2523515403        0.8738577191       -0.1550902968
 C         -0.9870466086       -0.2254283734        0.2687303203
 C         -2.4466697861       -0.2217886918        0.1460012805
 N         -2.9907561324        0.6378328557       -0.7052922520
 C         -4.3183080618        0.5916299980       -0.8052265462
 C         -4.9629009731        1.4699025008       -1.7783373177
 C         -4.1883295421        2.2564017859       -2.6296196123
 C         -4.7993445494        3.0758096223       -3.5585145147
 C         -6.1823884029        3.1183182806       -3.6453469221
 C         -6.9568100294        2.3387277735       -2.7998061701
 C         -6.3529548718        1.5161763795       -1.8690642800
 N         -5.0863573626       -0.2089478725       -0.0727711087
 C         -4.4570730999       -1.0166702960        0.7741884993
 C         -5.2643488237       -1.8879455049        1.6255602362
 C         -6.6504541180       -1.9173488306        1.4835748323
 C         -7.4110566010       -2.7329424650        2.2984472815
 C         -6.7981132388       -3.5227495264        3.2589846359
 C         -5.4195454730       -3.4969889624        3.4039429961
 C         -4.6526043810       -2.6843316277        2.5921027473
 N         -3.1314596125       -1.0769541348        0.8956971797
 C         -0.3293565599       -1.3259773673        0.8171925896
 C          1.0461912445       -1.3390666019        0.9158806492
 C          1.7936716715       -0.2397736039        0.5005111954
 N          3.1842991221       -0.2544499461        0.5790758854
 C          3.9889860549       -0.7192412582        1.6185742775
 C          3.6595802375       -1.2261920909        2.8618106597
 C          4.6978462429       -1.5900021670        3.7059382586
 C          6.0262917850       -1.4429959802        3.3305705797
 C          6.3704918425       -0.9072063005        2.0996203832
 C          5.3430841651       -0.5429773616        1.2511377963
 N          5.3327064887        0.0233648920       -0.0025086271
 C          6.1091142744        0.4567007964       -1.0537608295
 C          7.4726449815        0.5499273254       -1.2554324630
 C          7.8959883699        1.0567368370       -2.4704330261
 C          6.9871155615        1.4560084239       -3.4484797914
 C          5.6225590055        1.3640036751       -3.2560419584
 C          5.1709062955        0.8582514962       -2.0459314110
 N          3.8751325186        0.6665744588       -1.6076471074
 C          4.0209716998        0.1944871520       -0.4079134103
 H         -0.7648731868        1.7298781205       -0.5660324008
 H         -3.1135428859        2.2071169311       -2.5511906995
 H         -4.1983066492        3.6834163698       -4.2189247996
 H         -6.6573861485        3.7592520878       -4.3737235308
 H         -8.0340854589        2.3744680614       -2.8700129453
 H         -6.9390222262        0.9027066460       -1.2029616657
 H         -7.1096752936       -1.2959365969        0.7309640663
 H         -8.4853013158       -2.7551075404        2.1880821744
 H         -7.3955128543       -4.1587582381        3.8958055006
 H         -4.9450679516       -4.1125975154        4.1541090624
 H         -3.5791340842       -2.6474115133        2.6937070462
 H         -0.9137687191       -2.1733379241        1.1400250717
 H          1.5567953476       -2.2118653410        1.2934485860
 H          2.6325949476       -1.3246777074        3.1753637405
 H          4.4642566213       -1.9946446693        4.6785724487
 H          6.8066881549       -1.7412523046        4.0132482769
 H          7.4011108640       -0.7741360121        1.8132204870
 H          8.1778225897        0.2443348547       -0.4977642073
 H          8.9542137493        1.1475562974       -2.6641853542
 H          7.3642319886        1.8493936007       -4.3808220974
 H          4.9191545943        1.6758821383       -4.0103864600
