118
 energy: -184.549781845578 gnorm: 0.000048520021 xtb: 6.7.1 (edcfbbe)
O            0.01957327120875        4.27461738136100        2.90771341871114
C            0.02980968468460        3.26345499168571        2.22311855730354
C           -1.22848960609968        2.58094573521136        1.83482189314236
C           -1.29995022652978        1.19435160110502        1.70197490043239
C           -2.49998238722948        0.58839550800256        1.38492308722309
C           -3.64224601773980        1.35885307697754        1.18845488542283
N           -4.87241114872035        0.73269303754049        0.85440611938987
C           -5.57021981227554        0.05218482289346        1.84356749917461
C           -5.09004554638813        0.02743634818068        3.15652349565592
C           -5.77104893982069       -0.65037642915737        4.14706893377618
C           -6.95051635816905       -1.31436452369717        3.85448984979741
C           -7.44354325992008       -1.27411988304749        2.56383465128943
C           -6.77353520524330       -0.59644132086741        1.55535956904494
C           -7.38773243246748       -0.55970940923215        0.17755132550312
C           -8.78370682019825        0.03484574171429        0.24152535590895
C           -9.15379888284569        1.30454731253939        0.62700594064782
C          -10.50228802996777        1.63690267718199        0.61007539012105
C          -11.45629580877441        0.71141967472810        0.21450685549984
C          -11.08837598533190       -0.56748443825289       -0.17345112464359
C           -9.74469158966925       -0.90429535122209       -0.15885631832187
C           -9.06413961765704       -2.14411337192301       -0.50377616964123
C           -9.55575415098158       -3.36025431023738       -0.94942013749873
C           -8.65841612147661       -4.38590657467565       -1.20317529407711
C           -7.29675626596976       -4.20260094944115       -1.01532149831863
C           -6.79830180706921       -2.98542439593528       -0.56876135392004
C           -7.68645883482522       -1.96344717628067       -0.31517810946887
C           -6.54329610797533        0.18752735853530       -0.82613170740875
C           -6.97421854559079        0.26072300079866       -2.12375948671698
C           -6.24261663970088        0.93326244514785       -3.12083112002264
C           -6.68213841442528        1.01848224583178       -4.45663211059383
C           -5.93578825128012        1.67774134645452       -5.39431721843697
C           -4.71830100827872        2.27831941013128       -5.03465953387263
C           -4.26547695878689        2.21100358159098       -3.74667205378698
C           -5.01321884859094        1.53900280070268       -2.75544388797062
C           -4.57874242733205        1.45099335875697       -1.42262698857748
C           -5.32262287896447        0.80404511581603       -0.45595007908773
C           -3.57872187650647        2.74212247014400        1.32760778224993
C           -2.38239582134996        3.34473331635698        1.66004101432098
C            1.30001675389589        2.66359807719899        1.75034557734884
C            2.43898605026473        2.78960538140462        2.54587676900824
C            3.64422304152908        2.25926137774305        2.13410378280648
C            3.73569830547839        1.61656414898076        0.90204970231134
N            4.97533799180890        1.07474104352366        0.47684260181476
C            6.00066854088751        1.94375588667010        0.12271620220902
C            5.77525655824974        3.32331661794541        0.08562210467219
C            6.78531103806570        4.19793842140084       -0.25930638268615
C            8.04232859172627        3.71829638100743       -0.58712688005559
C            8.26447846479448        2.35429604973362       -0.58104900710713
C            7.26058477244341        1.45993880753228       -0.23757894478612
C            7.56519695785337       -0.01712995871232       -0.27688257659378
C            8.72669789454053       -0.34464777934154        0.64489798856993
C            8.79696917287266       -0.20158680916575        2.01312371647642
C            9.97198481317379       -0.56377399746953        2.65917569603905
C           11.05142994956910       -1.05934303524896        1.94348818046139
C           10.98468864397366       -1.20598295219578        0.56671044035844
C            9.81504808016679       -0.84647051267221       -0.08274115093669
C            9.45147093677971       -0.88455419153881       -1.49182115435470
C           10.16551374426319       -1.29269495899143       -2.60665402506372
C            9.55684154146839       -1.21482443472661       -3.84966071696644
C            8.26068986429384       -0.73881852197795       -3.97842272583856
C            7.53996587415959       -0.32872720942183       -2.86408613999927
C            8.14088333669027       -0.40455959111602       -1.62678705547082
C            6.37025444184341       -0.87488409767569        0.06199546932221
C            6.50972145680155       -2.23671733536774        0.02565365241624
C            5.45765601284664       -3.10885179113455        0.36254559910213
C            5.59019483826654       -4.51083791045423        0.31977278218879
C            4.54382025667557       -5.31957930735554        0.66885703403898
C            3.32198674297611       -4.75947436633842        1.07610564865797
C            3.16440318256404       -3.40272265188848        1.12892807237338
C            4.22455736599098       -2.54102979760699        0.77272852882250
C            4.09606924335480       -1.14283479007993        0.81089652267025
C            5.13048663031834       -0.30502268422995        0.44422159735935
C            2.60916762147280        1.51467062605133        0.08991250684801
C            1.39874848171461        2.02778339426149        0.51249045507454
H           -0.42146008575307        0.59008571927962        1.86919888188129
H           -2.56275382663902       -0.48547445158615        1.29030994300856
H           -4.17905334718404        0.55045615380748        3.40382646760007
H           -5.37758377086541       -0.65542216465713        5.15294911422552
H           -7.48594879282406       -1.84862438656218        4.62440411295735
H           -8.37098092955357       -1.77496341138169        2.32582390512681
H           -8.41293948986984        2.02757548039489        0.93693529210980
H          -10.81147160519815        2.62798288634788        0.90909124154669
H          -12.49996269388218        0.99141657613919        0.20955143604754
H          -11.83522128260550       -1.28501933927288       -0.47998226702777
H          -10.61548275790464       -3.50801236427905       -1.09698806766315
H           -9.02426065268034       -5.34133293147605       -1.55108017892059
H           -6.61540765366232       -5.01585619159555       -1.21931441196149
H           -5.73672201308212       -2.84540452703110       -0.42378933274365
H           -7.90640712399177       -0.21308672872185       -2.39862205547010
H           -7.62027079157604        0.55278080768938       -4.72481856828065
H           -6.27634740040759        1.74171675914307       -6.41778349555703
H           -4.14134032724361        2.79545646176728       -5.78817040223376
H           -3.32884305777639        2.67339898121700       -3.46760679550869
H           -3.63475916754546        1.90777346386033       -1.16613661499467
H           -4.46963225606860        3.33378399287006        1.17919527560330
H           -2.32018616161466        4.41578656104774        1.78466952792604
H            2.35461801067393        3.29548679408790        3.49634939263312
H            4.52260326006868        2.34476158493641        2.75621327074112
H            4.79802984584203        3.71355622237592        0.32456848460365
H            6.58497675022065        5.25916258611090       -0.27554511930302
H            8.83779442275042        4.39729661662153       -0.85371396258866
H            9.23605893214573        1.96597442179871       -0.85068006357590
H            7.95753739060162        0.18371928280063        2.57391188096140
H           10.04534381075346       -0.45833082969321        3.73188802313222
H           11.95612863069519       -1.33436169838465        2.46657784892377
H           11.82789355032984       -1.59287051568765        0.01363497945183
H           11.17532608696903       -1.66386846798305       -2.51128792430588
H           10.09918705372281       -1.52799049620693       -4.73030341605643
H            7.80588158777866       -0.68597396983776       -4.95697651716463
H            6.53057731379415        0.04266871522739       -2.96771423964154
H            7.45990664976841       -2.66251207483597       -0.26544100426936
H            6.53452661077690       -4.93358042482513        0.00618431919704
H            4.64915175549618       -6.39443935449385        0.63457908129144
H            2.50575639232617       -5.41338103503840        1.34855444685173
H            2.22459968429552       -2.96977209368514        1.44210885517649
H            3.15451246603881       -0.73169383441522        1.14131008951377
H            2.69174182239761        1.03051698478457       -0.87172852058788
H            0.53440064485645        1.96185548526913       -0.13070311584977
