  118
       -184.40130076
 O         -0.0008529272       -4.2775379467       -0.0168622477
 C         -0.0009804279       -3.0160175101       -0.0556512287
 C         -1.2574870711       -2.2873878842        0.0337428732
 C         -2.3575473139       -2.9154853104        0.6515773682
 C         -3.5713257101       -2.2851823400        0.7498756525
 C         -3.7455242649       -1.0111764413        0.2021365441
 N         -4.9962756169       -0.3465609402        0.3062157027
 C         -5.0978938848        0.7559393028        1.1311514275
 C         -3.9943122448        1.1742281667        1.8875506004
 C         -4.0768810340        2.2802783104        2.7042893501
 C         -5.2624715871        2.9945858350        2.7975131050
 C         -6.3644864719        2.5732111406        2.0776936020
 C         -6.3020087648        1.4612596497        1.2514347013
 C         -7.5422234645        1.0383041907        0.5134774602
 C         -8.0370024597        2.1627713926       -0.3791620208
 C         -7.3946300760        2.7426531036       -1.4498819585
 C         -8.0389585453        3.7662281910       -2.1325351504
 C         -9.2995806647        4.1936844616       -1.7446583189
 C         -9.9490535399        3.6112641391       -0.6677144555
 C         -9.3114855494        2.5901725170        0.0171720412
 C         -9.7276188463        1.8002011025        1.1665237583
 C        -10.8872365071        1.8305395204        1.9232562266
 C        -11.0105489260        0.9456351376        2.9828498909
 C         -9.9975100472        0.0477731026        3.2828872277
 C         -8.8324711422        0.0124071733        2.5275701516
 C         -8.7073816492        0.8892865092        1.4734388439
 C         -7.3462724539       -0.2166225474       -0.2961864044
 C         -8.4133755730       -0.7372582950       -0.9764973200
 C         -8.2963960875       -1.8813149358       -1.7911963097
 C         -9.3891262957       -2.4312450031       -2.4844807059
 C         -9.2253738423       -3.5356195368       -3.2794818468
 C         -7.9621001103       -4.1308013370       -3.4155452925
 C         -6.8797769419       -3.6186054460       -2.7546303422
 C         -7.0169437565       -2.4845605395       -1.9230502974
 C         -5.9303685874       -1.9423816873       -1.2246809981
 C         -6.0756503330       -0.8384500949       -0.3953239094
 C         -2.6833314732       -0.3992870166       -0.4667670836
 C         -1.4634484239       -1.0260224029       -0.5547699926
 C          1.2505548911       -2.2878086436       -0.1769887132
 C          1.4297253540       -0.9720748401        0.2897032284
 C          2.6552068250       -0.3559219942        0.2058126357
 C          3.7499458864       -1.0320385429       -0.3356606992
 N          5.0162799714       -0.3897110771       -0.4107320124
 C          5.2202433891        0.5778268601       -1.3722432207
 C          4.1976472229        0.8957226578       -2.2765199111
 C          4.3821231664        1.8667451721       -3.2358159072
 C          5.5914918851        2.5408250123       -3.3251942226
 C          6.6134259906        2.2184044986       -2.4520303564
 C          6.4476578469        1.2444543497       -1.4790730264
 C          7.6053390112        0.9175915873       -0.5757633221
 C          8.1123435147        2.1693063328        0.1167330262
 C          7.4411305150        2.9808684191        1.0035381331
 C          8.1041414086        4.0860852832        1.5213320381
 C          9.4114688409        4.3656595059        1.1537752462
 C         10.0900034113        3.5506212760        0.2614205691
 C          9.4339641688        2.4472070923       -0.2584550138
 C          9.8726492823        1.4253163407       -1.1972852936
 C         11.0789765487        1.2469897963       -1.8539672079
 C         11.2158802746        0.1622800893       -2.7057644328
 C         10.1705558225       -0.7278212634       -2.8993912690
 C          8.9583044991       -0.5538698313       -2.2442180937
 C          8.8193163385        0.5225950067       -1.3971743387
 C          7.2806618921       -0.1509957824        0.4351684842
 C          8.2446655843       -0.5321614822        1.3283568022
 C          8.0080645754       -1.5125670033        2.3127946186
 C          8.9933717525       -1.9146597753        3.2321827800
 C          8.7160270423       -2.8651944837        4.1794301362
 C          7.4422944113       -3.4502596427        4.2462070742
 C          6.4629326035       -3.0799926407        3.3665920256
 C          6.7181583350       -2.1045216848        2.3768531710
 C          5.7371787966       -1.7055071642        1.4599989956
 C          5.9979883551       -0.7537916903        0.4840991670
 C          3.5997531903       -2.3516667313       -0.7692249432
 C          2.3786554358       -2.9688745582       -0.6797042442
 H         -2.2078792285       -3.9010775286        1.0636466857
 H         -4.4005162152       -2.7609603633        1.2533498107
 H         -3.0741653960        0.6162737212        1.8314323760
 H         -3.2125986244        2.5848188872        3.2749341082
 H         -5.3289867881        3.8637751145        3.4329255072
 H         -7.2981727682        3.1100730289        2.1546651209
 H         -6.4123337529        2.4095694531       -1.7532231871
 H         -7.5520961177        4.2337294398       -2.9754021692
 H         -9.7815596341        4.9913007410       -2.2904232185
 H        -10.9307831077        3.9477198699       -0.3694800095
 H        -11.6786403989        2.5284635737        1.6939416898
 H        -11.9073712019        0.9556591755        3.5844969703
 H        -10.1147305568       -0.6317975993        4.1137801508
 H         -8.0432574580       -0.6874317647        2.7620426693
 H         -9.3774019651       -0.2565577974       -0.8954637109
 H        -10.3591402831       -1.9670442065       -2.3779524344
 H        -10.0684388711       -3.9549749564       -3.8080641831
 H         -7.8514276860       -4.9993165733       -4.0477298013
 H         -5.9046180879       -4.0735632789       -2.8529218115
 H         -4.9627019750       -2.4016441912       -1.3444051339
 H         -2.8370222279        0.5673747176       -0.9259641488
 H         -0.6677221933       -0.5629533841       -1.1161025206
 H          0.6080597509       -0.4554132827        0.7590170327
 H          2.7884578974        0.6518188434        0.5742575281
 H          3.2606278213        0.3663535841       -2.2184035957
 H          3.5799855465        2.0966652904       -3.9206667585
 H          5.7380991698        3.3036107084       -4.0737618163
 H          7.5636552910        2.7266443901       -2.5207465213
 H          6.4222456355        2.7638119099        1.2908671381
 H          7.5948741847        4.7345725539        2.2185826193
 H          9.9071599935        5.2306689158        1.5690572595
 H         11.1080351581        3.7724073484       -0.0221805409
 H         11.8956708409        1.9378692251       -1.7066565937
 H         12.1492998280        0.0074696846       -3.2264706431
 H         10.2997467916       -1.5664620785       -3.5671821204
 H          8.1441079156       -1.2478610472       -2.3963448692
 H          9.2192976303       -0.0682044182        1.2843950669
 H          9.9720331361       -1.4597079479        3.1773409028
 H          9.4766409031       -3.1705682129        4.8824687171
 H          7.2417111968       -4.1974951458        4.9996090925
 H          5.4803266729       -3.5272908564        3.4108916878
 H          4.7585049076       -2.1523983313        1.5261933046
 H          4.4546358821       -2.8750649157       -1.1726719753
 H          2.2457509091       -3.9894749140       -1.0028464411
