118
 energy: -184.477157971868 gnorm: 0.000055911253 xtb: 6.7.1 (edcfbbe)
O           -0.01796501170747       -4.91781561428871       -0.02248768152087
C           -0.01321618970245       -3.64572935350133       -0.01712249466721
C           -1.26088977418213       -2.91675716102991       -0.16141620077690
C           -2.35598264791599       -3.55628909968427       -0.77883257602031
C           -3.56935712846833       -2.92892099396693       -0.90703422184371
C           -3.74914296369433       -1.64196376444542       -0.39297886814887
N           -5.00447690765252       -0.98422489937827       -0.52303202942974
C           -6.07355795112670       -1.42823034635025        0.23239718742995
C           -5.89959558045246       -2.46810816833425        1.15712994181707
C           -6.95998450034008       -2.93263764452198        1.90358036986639
C           -8.21949043305713       -2.36843582464435        1.75636470488830
C           -8.39501987407529       -1.32420944914368        0.86789168860671
C           -7.34002054342845       -0.83993173483087        0.10801199979135
C           -7.58833338260710        0.31529957561246       -0.82412484029096
C           -8.23114015462984        1.47176657562349       -0.07682797548295
C           -7.70967304512076        2.20534044099760        0.96578785008171
C           -8.47968403502098        3.22754050847267        1.50627692834788
C           -9.74462761180739        3.50235572216802        1.00880151086254
C          -10.27206443382698        2.76637008007639       -0.04088592259117
C           -9.50873044939952        1.74603887115566       -0.58475015781609
C           -9.78551363093215        0.81589128280728       -1.66996219414765
C          -10.89304481892698        0.67465820090357       -2.49021590320273
C          -10.88004877986445       -0.31805456901642       -3.45766274892234
C           -9.78422824280538       -1.15508752236566       -3.60444153778276
C           -8.67045843196014       -1.01834478248507       -2.78545626575953
C           -8.67969013212964       -0.03162395681234       -1.82467850866245
C           -6.34524420373980        0.76644078788652       -1.54719703107474
C           -6.42339822195917        1.83750344062390       -2.39569740833530
C           -5.31306839968495        2.29280692356326       -3.13527747238210
C           -5.38192370308985        3.40096971838013       -3.99907321224526
C           -4.27916041660560        3.80133960754846       -4.70746220575178
C           -3.06516323205497        3.10694533575027       -4.58450894755727
C           -2.96730893190366        2.02423479708070       -3.75500649129881
C           -4.08499937225072        1.58981823656069       -3.00621755335233
C           -4.01626517851768        0.49121001466627       -2.13969055834259
C           -5.11178231430897        0.08132001283870       -1.39137847340368
C           -2.69219150638463       -1.01130895614538        0.26783096709693
C           -1.47349608634471       -1.63567695334720        0.38347713408457
C            1.23988111293341       -2.92726420498706        0.13336579886534
C            1.46211094352723       -1.64342300775707       -0.40098028199974
C            2.68536700348552       -1.02904650328948       -0.27974538348650
C            3.73727724440942       -1.67293007954144        0.37618594694790
N            4.99754972990332       -1.02553960912820        0.51171964227128
C            6.06158222018307       -1.46698146940370       -0.25215611577642
C            5.87817311262113       -2.49416847071181       -1.18913671998955
C            6.93321514513749       -2.95567414968499       -1.94497005344278
C            8.19659796348012       -2.40093192124560       -1.79497784875141
C            8.38161253827829       -1.36938950586835       -0.89367938630791
C            7.33214874742296       -0.88841684604191       -0.12408914105586
C            7.59066824341787        0.25300410784137        0.82216293725722
C            8.23731239739944        1.41552436791280        0.08763421772398
C            7.71695207150943        2.16446727588994       -0.94454943954662
C            8.49072566368367        3.18939923907745       -1.47437276473791
C            9.75801928186401        3.45218752496642       -0.97638328582090
C           10.28432483762005        2.70072994241887        0.06284867059314
C            9.51745199308627        1.67725733279187        0.59571866934874
C            9.79284245520807        0.73155994797510        1.66777366821404
C           10.90217871410693        0.57398295999152        2.48260942137472
C           10.88771324066669       -0.43221006224346        3.43600817894784
C            9.78856583607729       -1.26628344309608        3.57449416712181
C            8.67279489314567       -1.11288239803494        2.76120778795388
C            8.68353322067220       -0.11286852919556        1.81428091160020
C            6.35279108117790        0.70217493559963        1.55548409523818
C            6.44042900824902        1.76082141372238        2.41849448242157
C            5.33507045467094        2.21354684374773        3.16704376633055
C            5.41395083446805        3.30886208398944        4.04626047459085
C            4.31570929880271        3.70729059833775        4.76264925068199
C            3.09620894690919        3.02394845194561        4.63223089481916
C            2.98859120276496        1.95378567131349        3.78781216722511
C            4.10153860178236        1.52159399399435        3.03071214248636
C            4.02307356154495        0.43552758779076        2.14931854262346
C            5.11421067414362        0.02778964663092        1.39355720618112
C            3.54787425294315       -2.96260045060931        0.87973161194081
C            2.32987930683904       -3.57986199683158        0.74600853917584
H           -2.20309957218635       -4.55437300229466       -1.16365713127528
H           -4.39196028682224       -3.42118921535938       -1.40603776176761
H           -4.92205488126409       -2.90524097791243        1.28626051460681
H           -6.80225774887977       -3.73719382853765        2.60593060384791
H           -9.05297896871350       -2.73331794563693        2.33630546414869
H           -9.36767730790147       -0.86808332838909        0.75697198157229
H           -6.72522219464673        1.99219834891503        1.35661840872190
H           -8.08803702436959        3.81403741399588        2.32445671028015
H          -10.32650082671589        4.30082751827378        1.44603107986345
H          -11.25764962207467        2.98403177663748       -0.42468859003154
H          -11.74932591192517        1.32316832463264       -2.37939603926573
H          -11.73502807375677       -0.44244075976070       -4.10639009481267
H           -9.79551431515976       -1.92262346792537       -4.36438396703968
H           -7.81798478055898       -1.67179667205597       -2.90308015109966
H           -7.36608513134376        2.35313691517323       -2.51053697057229
H           -6.31939018326313        3.93007686743849       -4.09300238374044
H           -4.33668642542535        4.65453155357155       -5.36745072299158
H           -2.20729665022035        3.43626478993506       -5.15253625748838
H           -2.03569202384659        1.48581095837466       -3.65540279632357
H           -3.08255789897869       -0.04355876438658       -2.06034131163765
H           -2.84787095435700       -0.03284116655099        0.70007956747763
H           -0.68115322554427       -1.15379978364458        0.93607678947728
H            0.67358648698137       -1.15124956742294       -0.94994253671589
H            2.84849040161697       -0.04825480917537       -0.70389509030199
H            4.89757537472257       -2.92383101783769       -1.32014571547717
H            6.76823197447160       -3.75036662361213       -2.65682910064525
H            9.02581327748970       -2.76339833868935       -2.38250640013861
H            9.35745012159681       -0.92074282425383       -0.78016164401614
H            6.73055522791177        1.96095572981266       -1.33562160370862
H            8.10012716672674        3.78757827157780       -2.28456098125718
H           10.34267505596701        4.25323392774434       -1.40509800469603
H           11.27175574621987        2.90893359764576        0.44715094784892
H           11.76103190232181        1.22017532704042        2.37829478672524
H           11.74412634339747       -0.56955362538547        4.08020762510689
H            9.79882028814224       -2.04469092290140        4.32331429961735
H            7.81774809898144       -1.76409895938275        2.87236871363597
H            7.38693692958937        2.26830125076152        2.53812704580222
H            6.35558730535460        3.82948937744487        4.14575619625527
H            4.38101294285252        4.55027870711652        5.43488394631326
H            2.24201300594547        3.35160998249926        5.20671170272298
H            2.05276733134540        1.42379934665573        3.68256482320127
H            3.08528171969185       -0.09117407901763        2.06418727876219
H            4.36667117170825       -3.46502078681667        1.37485218982749
H            2.16938923551477       -4.57982714398748        1.12277466624586
