72
 energy: -125.117053269922 gnorm: 0.000167722187 xtb: 6.7.1 (edcfbbe)
N           -2.00156806989182       -8.16181765441316        0.16998220684344
C           -1.43284144216262       -7.16465660847164        0.14884535459068
C           -0.72872746550314       -5.94497330243741        0.12256056219777
N           -1.40650866716437       -4.79248802150086        0.10150737535571
C           -0.72269440660265       -3.63621859693249        0.07588190773758
C           -1.42758884828151       -2.39724197451495        0.05288707754969
C           -2.83369808897039       -2.40975085164209        0.06094226866269
C           -3.54904496592372       -1.24499280460236        0.04026227589919
C           -2.86032910474684       -0.02178651287229        0.00861478507278
N           -3.60230225616224        1.20079609306796       -0.01356434119165
C           -3.93987658597946        1.76392052112860        1.20760898828255
C           -3.54912611976419        1.12989015910707        2.39235641899371
C           -3.86201158574233        1.65521840937907        3.63034290842553
C           -4.58064714205252        2.83469672755649        3.73099003574642
C           -4.97707296280029        3.47818570612819        2.57467195679777
C           -4.66225773107127        2.95679069279333        1.32805230580707
S           -5.21573618494331        3.89234096736754       -0.06305769847363
C           -4.73949622183661        2.86005241905494       -1.41377469284860
C           -5.12507766224539        3.29288299977191       -2.67431774554033
C           -4.78824580230711        2.57162985411040       -3.80332651738049
C           -4.05485036792830        1.40558858350828       -3.66115522374913
C           -3.67165607366932        0.96822094455006       -2.40881617781459
C           -4.00571478323856        1.67926640085376       -1.25076058006134
C           -1.48661529500159        0.01685333743612       -0.00038001821319
C           -0.72518907778283       -1.16310900692654        0.02276340897666
C            0.71042909292890       -1.16893839113967        0.01863603304303
C            1.48124481452116        0.00481885013149       -0.00820919835215
C            2.85462262996206       -0.04489377949180       -0.00741754265076
N            3.60576831315857        1.17201437517512       -0.03259659546815
C            3.95859146943119        1.72866900951980        1.18725153657428
C            3.57703933748481        1.09181946459463        2.37347369862397
C            3.90548052310077        1.61060401179288        3.61019636420290
C            4.63097514486796        2.78610579577924        3.70798954661350
C            5.01819670518082        3.43248016398159        2.55014925018942
C            4.68768197048732        2.91771805487134        1.30485209072002
S            5.22948402611252        3.85707044281459       -0.08835429536098
C            4.73704695760108        2.83088220135362       -1.43796155692818
C            5.11268015565204        3.26622797954263       -2.70062995899015
C            4.76297688896875        2.54966148714022       -3.82872277064837
C            4.02717128811405        1.38553234645491       -3.68341304658405
C            3.65380502029724        0.94567745603228       -2.42896739702415
C            4.00032140240918        1.65236539770425       -1.27191954374552
C            3.53364561992319       -1.27363835844225        0.01912118644966
C            2.80901310241164       -2.43257339429002        0.04378381067628
C            1.40302014151537       -2.40869928294040        0.04439554036622
C            0.68828865839239       -3.64195699390569        0.07175132936143
N            1.36286683538813       -4.80369935424300        0.09389825743343
C            0.67589737243584       -5.95069373770773        0.11895096059465
C            1.37036468462242       -7.17593521183775        0.14215775308936
N            1.93157946130579       -8.17740849831766        0.16118681392464
H           -3.32770637449224       -3.36860159129735        0.08479025455878
H           -4.62821395628227       -1.24704642070452        0.04718943910723
H           -2.99224525212724        0.20831963749098        2.33675982559958
H           -3.54172976201753        1.13476506419933        4.51959320733784
H           -4.83014674926455        3.24925420106975        4.69446966133741
H           -5.53752074675776        4.39956113073668        2.61894859398308
H           -5.69244940610205        4.20782877636455       -2.75149451255354
H           -5.09323740717941        2.91721192628239       -4.77797719405288
H           -3.77753665511754        0.82713373416748       -4.52873245337604
H           -3.10264916401649        0.05666177339525       -2.32067078643285
H           -1.00574370292202        0.98220693486088       -0.02449078915808
H            1.00807725886139        0.97405128080236       -0.02868571407975
H            3.01489572084618        0.17332314489302        2.32006520996038
H            3.59191529905467        1.08816211863264        4.50067232210596
H            4.89263161574907        3.19551215696342        4.67044449622906
H            5.58330948871207        4.35110115934652        2.59223308271344
H            5.68253293234656        4.17942361749233       -2.78019808373409
H            5.06013891734871        2.89728182717370       -4.80506604930641
H            3.74030398504669        0.81051006507054       -4.55016519530317
H            3.08285267426568        0.03557490379852       -2.33831564709690
H            4.61278410228813       -1.28443426214684        0.01936950553352
H            3.29537568953691       -3.39540398237360        0.06425785501553
