72
 energy: -125.159358184728 gnorm: 0.000061425317 xtb: 6.7.1 (edcfbbe)
N           -1.96746407874910       -8.38405981052977       -0.15268608855224
C           -1.41930657866684       -7.37938178431283       -0.11013329409985
C           -0.70756581451172       -6.15424014507881       -0.05412574377175
N           -1.38495761086944       -5.02091815916340       -0.11013412325174
C           -0.70622057049822       -3.87561236326996       -0.05521589156932
C           -1.42609813826635       -2.63230383597582       -0.11519473790921
C           -2.82209432918733       -2.64643318021598       -0.22602058897951
C           -3.53251690836496       -1.47455255653660       -0.28834488110655
C           -2.84911511360526       -0.25447334519532       -0.24261528115111
N           -3.55416485683004        0.97474248261809       -0.29487329429959
C           -4.20510615131164        1.32210418214260       -1.48084283067867
C           -4.21136990567936        0.44600210367952       -2.56752005613779
C           -4.86423017277521        0.75814555970157       -3.74672330634004
C           -5.53382122307694        1.95961397179176       -3.87915243546622
C           -5.50530213477304        2.85902805142696       -2.82908365149143
C           -4.83673614779369        2.55714995265078       -1.65354485444487
S           -4.75660083070712        3.85338063024704       -0.45100808248001
C           -4.22298679283331        2.96272513209979        0.98027909023036
C           -4.34468326886784        3.61631108387440        2.19630252261894
C           -3.93580446187881        3.01001697837985        3.36994230253179
C           -3.42629683939859        1.72617744999266        3.31810357574198
C           -3.31940609910953        1.06494315608989        2.10786327547068
C           -3.69451522646248        1.67215431198182        0.90771110361326
C           -1.47117373359375       -0.22943632687003       -0.12495175475894
C           -0.72410957995932       -1.40871506057741       -0.05704767528592
C            0.72519719044712       -1.40886828289331        0.06258556755389
C            1.47248885591688       -0.22980955634608        0.13021508832308
C            2.85077184549088       -0.25491745047700        0.24522522260296
N            3.55578860433822        0.97412429334270        0.29585067819793
C            4.21638297655950        1.31869899387969        1.47739033213256
C            4.23293271335895        0.43964389080018        2.56159363119418
C            4.89638636377313        0.74874900740812        3.73566004951977
C            5.56648387020763        1.95022824568114        3.86549050872235
C            5.52711489834333        2.85293528036773        2.81864090717819
C            4.84792160557299        2.55405684592159        1.64841111248478
S            4.75394670806421        3.85481901661181        0.45184481381377
C            4.20865041046631        2.96868171796256       -0.97773091473851
C            4.31755399093919        3.62735116728977       -2.19226725615313
C            3.89994984513926        3.02445788527665       -3.36454427602468
C            3.39527834541443        1.73866801869576       -3.31321106643274
C            3.30110961103939        1.07250242525224       -2.10464567114397
C            3.68420504421770        1.67647245416108       -0.90534163258505
C            3.53399058776577       -1.47523164499523        0.28875864922546
C            2.82321296805472       -2.64695545281788        0.22781644950689
C            1.42701167460772       -2.63266376484796        0.11953787955836
C            0.70685748227426       -3.87574906918788        0.06019023292426
N            1.38531027581615       -5.02128311789064        0.11541916086314
C            0.70760264459301       -6.15438372136084        0.05980051893072
C            1.41892156258840       -7.37979046264441        0.11589526201936
N            1.96629270464504       -8.38485701794107        0.15933293910206
H           -3.32026091274146       -3.60271462030310       -0.25249102278510
H           -4.60951655833735       -1.48052640997366       -0.36092663385803
H           -3.68477858369231       -0.49268077469983       -2.50065835241923
H           -4.84267935987949        0.05119184824612       -4.56188430960058
H           -6.05503236972052        2.20607039637391       -4.79034423445787
H           -5.98790869492402        3.82082941257772       -2.91227754392433
H           -4.75726091895428        4.61358729597700        2.20383603173297
H           -4.02353320743629        3.53286310941264        4.30894436111815
H           -3.11454510278477        1.22440527338217        4.22131064771432
H           -2.93813064832918        0.05565567727968        2.09631816426847
H           -0.99061536926041        0.73476018735655       -0.08389992767622
H            0.99192861145181        0.73444410276987        0.09040450951782
H            3.70597885782341       -0.49898441371175        2.49718663178847
H            4.88268528835456        0.03940225794934        4.54890501076587
H            6.09615797019457        2.19421339422719        4.77245376504091
H            6.00934242876684        3.81504974987477        2.90040060132036
H            4.72724609422750        4.62581718973562       -2.19956523890201
H            3.97755936215840        3.55125095072145       -4.30222792048834
H            3.07744953118347        1.23924467112454       -4.21559856925498
H            2.92366856361227        0.06177483691631       -2.09382434889468
H            4.61119702032757       -1.48160265954352        0.35814097059511
H            3.32133278606945       -3.60329965591818        0.25289192321843
