72
 energy: -125.167027173948 gnorm: 0.000083106531 xtb: 6.7.1 (edcfbbe)
N           -2.48907511099499       -8.06069613275420        0.10442228722110
C           -1.88124339922327       -7.09072044069978        0.04864891913511
C           -1.09749874146327       -5.91318897695631       -0.02570958718648
N           -1.69052046523616       -4.74122358707364        0.14032924676011
C           -0.94016492300632       -3.64240305736289        0.08259120410028
C           -1.56260168488976       -2.35794520869429        0.20259237099528
C           -2.95660034021716       -2.25763202182220        0.29366599880812
C           -3.58094836790877       -1.04195308082783        0.34811174215561
C           -2.82714218183196        0.14539064253673        0.30022397335222
N           -3.46098494227457        1.37193653791395        0.29184462076332
C           -2.79713704967074        2.58123515406793       -0.00737421543756
C           -1.73915872117248        3.04545654292244        0.76715011400282
C           -1.08514653578397        4.21521325734573        0.42545461799482
C           -1.49609219126376        4.95104111944838       -0.67408749879428
C           -2.59030970474949        4.53779389465290       -1.41047346435562
C           -3.24273890414305        3.36219897310718       -1.07303748740164
S           -4.67524059081110        2.85966902023251       -1.98753559450947
C           -5.56595925552036        2.15787730779585       -0.62444334504575
C           -6.94504254537535        2.28199987958300       -0.55848934162130
C           -7.63092925174923        1.75034563195008        0.51768944008718
C           -6.93741333158491        1.12247740465457        1.54060707780127
C           -5.56128765100402        1.00336572932568        1.47852721641012
C           -4.86481606051530        1.49220086401917        0.37814552324996
C           -1.44109461541213        0.04624126057792        0.19239595731543
C           -0.78414399867971       -1.18100656659836        0.16980035599275
C            0.66779378491218       -1.28234636674871        0.10217700928586
C            1.50091242830768       -0.17709229396893        0.25095817231856
C            2.89001636131388       -0.27831690227476        0.17752485263186
N            3.68372885472538        0.83345254477777        0.36976938281167
C            5.07973782969454        0.83761679042544        0.15584935095955
C            5.92686827432479       -0.05526634965830        0.80397705037357
C            7.28646712128614       -0.03352600503030        0.55087364219438
C            7.82042062363910        0.89633586751158       -0.32703521671806
C            6.99831038233405        1.83561088713162       -0.92150933814894
C            5.63566371871174        1.81163798660771       -0.67149043041324
S            4.58200110924216        3.05981771191107       -1.36421749168526
C            3.52329724739352        3.22592830193847        0.04908688821252
C            3.07644725311927        4.47701267347582        0.44378056016795
C            2.29017243669937        4.59877259684274        1.57427382103482
C            1.96153036715043        3.47326082416040        2.31532530618500
C            2.40618322709674        2.22489903290519        1.92226992844717
C            3.17541240806294        2.08554550400401        0.77093622884378
C            3.45064921210911       -1.52093619171895       -0.16929407217179
C            2.65187188693495       -2.62570172898009       -0.28484976507397
C            1.26568728370043       -2.54462244308540       -0.10449691842707
C            0.46473188334343       -3.73182362720982       -0.12460209258215
N            1.05139353892749       -4.91270194023983       -0.31129575348285
C            0.29573301184368       -5.99929669114762       -0.27535370599058
C            0.90546187350627       -7.26076170188090       -0.48300729852631
N            1.37163636847978       -8.29509134487441       -0.64520567789949
H           -3.53116708519412       -3.17045487760522        0.30218258680960
H           -4.65764189570270       -0.99862445498690        0.38466917346065
H           -1.43345001268555        2.48360561078363        1.63721109386864
H           -0.25052492607472        4.55046696184619        1.02029789690874
H           -0.97735883065190        5.85729492611727       -0.94512438155814
H           -2.94514529141328        5.11304405659543       -2.25138975633521
H           -7.46674241434221        2.78836502526344       -1.35558102544148
H           -8.70522489545136        1.83755186052421        0.56399544457074
H           -7.46894285048106        0.72554280427279        2.39170250254176
H           -5.01384913993438        0.52021719862776        2.27409485052175
H           -0.86645909102398        0.94937272095402        0.08012912447881
H            1.06881496094631        0.79463084469408        0.42330848315812
H            5.51315673202660       -0.76366279972257        1.50569796038471
H            7.93093462370616       -0.74305680221465        1.04654847409721
H            8.87977485523584        0.90557395252843       -0.53064048520332
H            7.39980889291057        2.58940516925693       -1.58068788637876
H            3.35316111055827        5.34283286807023       -0.13718760850409
H            1.95162724779167        5.57483406344198        1.88780741102875
H            1.36452895580904        3.56871683583612        3.20982491515030
H            2.16659720583266        1.34784015750984        2.50481123833879
H            4.50907651254697       -1.60985106740092       -0.35100291074664
H            3.07824594375279       -3.59011488502748       -0.51182881271691
