  66
       -109.81491512
 O         -0.3167260258        3.8714059691        2.5517879626
 S         -0.2523872617        3.5288947386        1.1512316815
 O         -0.2204239148        4.6132902999        0.2002014939
 C          1.1460402806        2.4540562866        0.8568901660
 C          2.0437847420        2.7207223259       -0.1590175645
 C          3.0963099160        1.8619515658       -0.3945390090
 C          3.2742712881        0.7145260258        0.3926475163
 N          4.3201817565       -0.1500283547        0.1565692524
 C          4.4723070893       -1.3760256458        0.8415022449
 C          4.5949698429       -1.4266500402        2.2260192387
 C          4.7239324341       -2.6443454261        2.8693759182
 C          4.7587127184       -3.8212211295        2.1379593978
 C          4.6981911952       -3.7792387077        0.7573896470
 C          4.5635706861       -2.5597749165        0.1121350595
 S          4.5334454614       -2.4901992721       -1.6600600643
 C          5.4382498955       -0.9736389606       -1.8284238994
 C          6.3364356873       -0.8121739305       -2.8719563566
 C          7.0628449020        0.3594926536       -2.9756218915
 C          6.9188160028        1.3517912235       -2.0183716910
 C          6.0271013805        1.1889594936       -0.9738639948
 C          5.2490032387        0.0390234368       -0.8906123381
 C          2.3182733226        0.4359949633        1.3819970555
 C          1.2713231644        1.3016586562        1.6113853358
 C         -1.6345447652        2.4437123582        0.7692981014
 C         -1.7927724314        2.0056531406       -0.5326085139
 C         -2.8047293958        1.1157002912       -0.8348646811
 C         -3.6621312186        0.6667187255        0.1718354651
 N         -4.6784446092       -0.2410183213       -0.1268094430
 C         -5.5784252985       -0.1392859318       -1.1740599860
 C         -5.7358121616        0.8718068911       -2.1104484964
 C         -6.7495233945        0.7374372574       -3.0405983837
 C         -7.5965887645       -0.3680771902       -3.0395015821
 C         -7.4625927236       -1.3633051718       -2.0921342823
 C         -6.4512793090       -1.2498760024       -1.1474010847
 C         -6.0486276913       -2.0622165926       -0.0324768462
 C         -6.5036417676       -3.2700902645        0.4795779501
 C         -5.8599995891       -3.8077010341        1.5762945956
 C         -4.7651029272       -3.1654566193        2.1491012387
 C         -4.2946143685       -1.9625926244        1.6566002573
 C         -4.9557198806       -1.4028712843        0.5731849411
 C         -3.4951266525        1.1246280113        1.4793785639
 C         -2.4744587726        2.0079094487        1.7758311295
 H          1.9032305626        3.6080891894       -0.7559821459
 H          3.7717983817        2.0693246311       -1.2086171577
 H          4.5823322893       -0.5055293829        2.7894350893
 H          4.8021632417       -2.6717675528        3.9452356781
 H          4.8521710538       -4.7708290622        2.6412050442
 H          4.7501126956       -4.6827584691        0.1699551142
 H          6.4528834438       -1.6054463826       -3.5939098508
 H          7.7540371067        0.4902727410       -3.7934751407
 H          7.5059366543        2.2548350418       -2.0813519022
 H          5.9204538057        1.9521819358       -0.2174365175
 H          2.3847562323       -0.4734660280        1.9566304694
 H          0.5446541566        1.0928860565        2.3810889593
 H         -1.1195472568        2.3661337333       -1.2946738511
 H         -2.9260469578        0.7456286627       -1.8414002149
 H         -5.0996187257        1.7440054591       -2.1078545439
 H         -6.8894051117        1.5100620073       -3.7818160575
 H         -8.3741846875       -0.4376962238       -3.7851160624
 H         -8.1303986533       -2.2111253080       -2.0780756526
 H         -7.3400003232       -3.7764617755        0.0224564708
 H         -6.1994170546       -4.7442503338        1.9923861611
 H         -4.2693452695       -3.6184624129        2.9946563951
 H         -3.4316960315       -1.4848875621        2.0958365136
 H         -4.1770028789        0.7977465100        2.2494628855
 H         -2.3221719917        2.3831246567        2.7758105135
