66
 energy: -109.865056655642 gnorm: 0.000068151191 xtb: 6.7.1 (edcfbbe)
O           -0.31916933881917        3.68860538832884        2.51795064046191
S           -0.25579440975285        3.34040221317539        1.11187895332079
O           -0.23002467857552        4.44154180629167        0.16964919297138
C            1.16599014172018        2.30187594332803        0.82716200304587
C            2.01746041223092        2.54942193009001       -0.23376058302940
C            3.10852255069749        1.73494369462354       -0.44825577910084
C            3.37507458606594        0.65305502613716        0.40624630552277
N            4.46342004341384       -0.16156348307834        0.19746117944085
C            4.71898995595617       -1.32055300906500        0.96631944460171
C            4.89268117914081       -1.25845236279473        2.34503999064838
C            5.13167773680980       -2.41316661703054        3.06871365462420
C            5.22466239574485       -3.63665631501661        2.42318752164563
C            5.11169422074458       -3.70292526355476        1.04638822537629
C            4.86741845827793       -2.54679232517233        0.32117854441099
S            4.77105115866448       -2.60866402112350       -1.45107804578371
C            5.58162552090911       -1.05808266383674       -1.75545620441084
C            6.44710904980687       -0.92354712983785       -2.83021078548402
C            7.10466779222297        0.27585942995574       -3.03393595196233
C            6.92545143133963        1.32474858609585       -2.14513880438601
C            6.06576078875876        1.18939178065621       -1.06971117754022
C            5.35555204757734        0.00746542232016       -0.88652370745688
C            2.46298827342216        0.38830441714215        1.44152870052157
C            1.37603037281343        1.20882090397668        1.64957796453484
C           -1.65797234809841        2.28764842323134        0.72939002009181
C           -1.90413999572193        1.95935221091329       -0.59133373871378
C           -2.95591003628784        1.11801843173275       -0.89945093418926
C           -3.76524911788822        0.60955367455371        0.11920331970834
N           -4.82935505030795       -0.23987177886705       -0.18811556855179
C           -5.79215351352345       -0.01832996506661       -1.15879104821406
C           -5.96878433904781        1.07205194560191       -1.99850741787464
C           -7.04812482646861        1.05404762762887       -2.86246782710322
C           -7.94040556523241       -0.01544488356079       -2.89048744169124
C           -7.78549057116412       -1.09054988515493       -2.03768696005211
C           -6.70835910575706       -1.09437099374638       -1.16069422421303
C           -6.26728432789932       -2.01125004445621       -0.14528717088535
C           -6.73858724484551       -3.24022183802901        0.29854399719208
C           -6.04799903212235       -3.89028412915331        1.30233996828168
C           -4.89187310616071       -3.33764805316430        1.84880147758349
C           -4.40387416504946       -2.11622210438359        1.42262990938751
C           -5.10973441918029       -1.44491251925646        0.43453154559257
C           -3.50585628580610        0.95429635357259        1.44692827366702
C           -2.44658717370700        1.78909796923240        1.74900603113013
H            1.81326812300709        3.39061891363824       -0.87781203656100
H            3.74811999681544        1.92748090020892       -1.29407362941320
H            4.83276652161783       -0.30141017493039        2.84106171853612
H            5.24973680185719       -2.35550189733089        4.13991955847850
H            5.40472279690859       -4.53751863998906        2.98910484697460
H            5.20719184641438       -4.64265593587922        0.52454875062252
H            6.59369917368322       -1.75892230072971       -3.49740013847679
H            7.77096595170511        0.38470477803993       -3.87562593394130
H            7.45984244493750        2.25171697621334       -2.28599788732156
H            5.93281453400099        1.99841751214838       -0.36733834256120
H            2.59785485241399       -0.47475040823123        2.07274973087939
H            0.68593371327787        1.01518924191124        2.45554372836439
H           -1.27065220544483        2.36946513764587       -1.36192357437227
H           -3.14645293869206        0.83607324844742       -1.92337952623104
H           -5.29713053517209        1.91656675839343       -1.97224642526840
H           -7.20429210234610        1.89017964960077       -3.52831345863794
H           -8.76925872246223        0.00623310108967       -3.58255362610923
H           -8.48765339802387       -1.91058037395195       -2.04549329274434
H           -7.62416650511715       -3.67659775643868       -0.13824010021949
H           -6.39960655556626       -4.84516793454446        1.66439039275463
H           -4.36204788653883       -3.87671025193819        2.62050227169165
H           -3.49577405357563       -1.70865142347804        1.83973589890240
H           -4.14674435176965        0.58192035479676        2.23109678025383
H           -2.22852343430581        2.08212266880733        2.76431915469698
