66
 energy: -109.862718862151 gnorm: 0.000026756881 xtb: 6.7.1 (edcfbbe)
O            0.34289631897369        4.59598412070534        0.43051593103274
S            0.32937366763024        3.61910407861764       -0.63601145105932
O            0.44225952916380        4.11519753725865       -1.99026131453472
C            1.65389466417279        2.43774013537633       -0.34719231953463
C            2.04844301657627        1.61237623259722       -1.38443761169822
C            3.03973257276115        0.67352053762131       -1.16296637088605
C            3.62224595340028        0.56777025344942        0.09854358124766
N            4.64650141033179       -0.39237261305467        0.34431517575923
C            5.96381786126332        0.00574085528466        0.11698357700804
C            6.22495463725014        1.25693261797058       -0.44542601729741
C            7.51837131041423        1.68766166254779       -0.68320807559054
C            8.59345468660213        0.87425180802386       -0.37790825971422
C            8.35546629394405       -0.37122630540829        0.17663378913638
C            7.06238155598030       -0.79842392321726        0.43104844255461
S            6.89236269705874       -2.38291534559279        1.20840955130851
C            5.16424130126114       -2.70334523668398        0.97101809955347
C            4.74064545613012       -4.00027795391130        1.21169408571823
C            3.39969622460189       -4.33350973088857        1.13277305127709
C            2.48372914762527       -3.34991999520834        0.81023723570875
C            2.90617572144759       -2.05795064409275        0.54993216097093
C            4.25521690968466       -1.70361197549376        0.61456519082784
C            3.21672254175350        1.40404126289480        1.13271436428390
C            2.22456139692645        2.34362758977618        0.90711062117929
C           -1.15502591954652        2.62548783755093       -0.50241577818891
C           -1.74442770612639        2.11848043506647       -1.64595686346194
C           -2.86867004076530        1.32268047794911       -1.53721337318838
C           -3.39601581227778        1.02701505364680       -0.27799209821897
N           -4.53236596775706        0.22669352451897       -0.16467233560617
C           -5.65628069559517        0.51679911332168        0.59231766589791
C           -5.94704760900188        1.64183460888270        1.35036685812162
C           -7.17580075183118        1.69529376251569        1.98219245908317
C           -8.10253437956969        0.66241205186741        1.86021230407194
C           -7.82949336317955       -0.44709470389134        1.08447273199112
C           -6.60122728836496       -0.52266296455211        0.44038769625385
C           -6.01043874511387       -1.48919813615094       -0.44488855586525
C           -6.43905918622916       -2.71414591496935       -0.93991634148194
C           -5.59506060070745       -3.42329141647395       -1.77191963846394
C           -4.33240490183680       -2.93263007280167       -2.09646124020787
C           -3.88448014882574       -1.71608352942107       -1.61530420130857
C           -4.73898546665307       -0.98645700099159       -0.80138818529159
C           -2.78398868384055        1.54216565725618        0.86744646974626
C           -1.66398722136325        2.34270602131276        0.75217061605147
H            1.59031760533768        1.72864747068633       -2.35347662621532
H            3.36988002339228        0.02325544549590       -1.95907688110308
H            5.40239802411620        1.90793515419552       -0.69625144376858
H            7.67667369986100        2.66538551139712       -1.11244565032401
H            9.60509113072845        1.19970475248432       -0.56267756358076
H            9.17437105751719       -1.02640455121980        0.43354511967765
H            5.47933786510258       -4.74122947138514        1.47861724411435
H            3.08137486565195       -5.34486385384916        1.33091152176935
H            1.43056232926523       -3.58030438624051        0.75649953476822
H            2.17260041362391       -1.30751588440965        0.30187923369595
H            3.68161029753140        1.31620125344077        2.10276194854263
H            1.89598834557294        3.01639864345064        1.68326009212063
H           -1.32903414264036        2.37873110841384       -2.60670820099541
H           -3.35692109290338        0.94593195613534       -2.42246284548481
H           -5.24739062796063        2.45920494376613        1.43591827289436
H           -7.42373706873535        2.56011782011120        2.58003706847732
H           -9.05083211761579        0.74042202461284        2.37117022603557
H           -8.55521031500610       -1.23857332230919        0.97317327188290
H           -7.41043041107085       -3.10225102054298       -0.67299195012555
H           -5.91038966176431       -4.37638080221100       -2.17019071941682
H           -3.68673722934730       -3.51710043772667       -2.73545932603313
H           -2.89617233433569       -1.35708990051979       -1.85828500379457
H           -3.18155087014166        1.29875219637325        1.84041361092618
H           -1.18165517253163        2.76062657667201        1.62131543876088
