66
 energy: -109.763675966842 gnorm: 0.000031562962 xtb: 6.7.1 (edcfbbe)
O           -0.30927489094136        4.07283825790168        2.43397733701992
S           -0.22922832145827        3.66328396385547        1.04037594767722
O           -0.13874939876668        4.72315906009077        0.04820253855329
C            1.13493891543051        2.56726107834130        0.83925808606637
C            1.68699515156382        2.36620944167919       -0.43503744946155
C            2.64448468039308        1.41094593864208       -0.63423008231756
C            3.10677141907024        0.61050488813285        0.44396956148687
N            4.10663644452504       -0.32438448807603        0.25837655677046
C            4.58118500606788       -1.15349989067804        1.27975806932059
C            4.96568053783875       -0.64106885199675        2.52816101254618
C            5.42870982653346       -1.48059535850724        3.51555494930961
C            5.52884452089612       -2.85286443607232        3.29206475227356
C            5.21032034456521       -3.36950740353982        2.04805956509603
C            4.75755536266234       -2.52942137594272        1.04447365169549
S            4.39341510477183       -3.18053425364088       -0.55538931906738
C            4.97870705030486       -1.79036943464969       -1.47208943364511
C            5.62542687930560       -1.98000958039234       -2.68181045748857
C            6.11221633280095       -0.89143890445052       -3.38466325562460
C            5.98154235372891        0.38953189065193       -2.85057321340475
C            5.32729205180414        0.58789679638833       -1.65620263317809
C            4.77640969088968       -0.49681537177726       -0.95691953941645
C            2.45043751891020        0.74409283632914        1.69606059928427
C            1.49454106135769        1.70307072967213        1.88504601180387
C           -1.60931132335038        2.62769365549092        0.65945641913304
C           -2.01800925725360        2.48168443974518       -0.66827476192804
C           -2.99048407274464        1.56711671152969       -0.99101627673202
C           -3.56356635305138        0.76567112836978        0.01012165294197
N           -4.55647233697123       -0.16397245693562       -0.31312817046898
C           -5.69102480955813        0.08926855302711       -1.05755495001634
C           -6.13556948133057        1.28190308610351       -1.61401229071124
C           -7.33723412660008        1.26758068494055       -2.29864882987774
C           -8.08743605247631        0.09949825429169       -2.42402855936888
C           -7.66265052624640       -1.08649070042288       -1.85133142756555
C           -6.46099799037198       -1.09668019317047       -1.15805614950308
C           -5.74339285346749       -2.11032270373158       -0.43443513768456
C           -5.97682877788810       -3.45524169549266       -0.18614035750223
C           -5.04128856637216       -4.16632606125021        0.54476994686820
C           -3.87906833773613       -3.55552976781429        1.01284502799220
C           -3.62584413853041       -2.21583084413397        0.78078877130786
C           -4.57356393181994       -1.48965793602927        0.07067159495666
C           -3.13662859422861        0.90841171802448        1.34104162388843
C           -2.16559526209822        1.82563146114972        1.65908429332756
H            1.33844020570345        2.98806524539268       -1.24418461667256
H            3.02784889053347        1.24957057932452       -1.62828505123644
H            4.91798716677321        0.42488023405051        2.68962497069980
H            5.72413572008914       -1.06786504167427        4.46783825604353
H            5.87878748086067       -3.50742846774967        4.07396144691914
H            5.31690091891397       -4.42301260695711        1.84190144915302
H            5.74787409508715       -2.98287730351603       -3.05987684507816
H            6.61326101907082       -1.03953437469101       -4.32762623722820
H            6.40285632962684        1.23516914000536       -3.37199298386241
H            5.25126803867543        1.57519977159233       -1.22720874341679
H            2.68362216488869        0.06808541582069        2.50213035291402
H            1.00107185255722        1.82254538824642        2.83639346332966
H           -1.56384107093711        3.11240749899303       -1.41624677089805
H           -3.30520951870159        1.44142214479108       -2.01589781920972
H           -5.56960385122531        2.19428048940775       -1.50463214245176
H           -7.70374740985962        2.18205909467299       -2.74079789729177
H           -9.01937620968803        0.12697265563655       -2.96889083977913
H           -8.25442162432442       -1.98519983320434       -1.93645497300079
H           -6.86780293623641       -3.93537374673341       -0.56122953450289
H           -5.20615215189021       -5.21376614218659        0.74936416939566
H           -3.15887856728869       -4.14135992566545        1.56418831065710
H           -2.71581613189537       -1.75282084776471        1.13008476570410
H           -3.60240443105947        0.31437682816914        2.11278901039662
H           -1.83705052700546        1.97278633905197        2.67587499094747
