  54
  -83.2803642517000       0.262549269541292      !
 N          4.9764893457       -2.5483252921       -1.3702152732
 C          5.1470686538       -1.4952632482       -0.9218993466
 C          5.3885220367       -0.2339303926       -0.3835980486
 C          4.3501815921        0.7550631128       -0.3705093213
 C          2.9824692401        0.5594113302       -0.3286577166
 C          2.3610115114       -0.7168867587       -0.1393904141
 C          1.0100373697       -0.8470236003       -0.0852425665
 C          0.1557028512        0.2777591529       -0.2064133426
 C         -1.2523152950        0.1820236307       -0.1354489542
 N         -2.0936637090        1.2122953822       -0.1821910897
 C         -3.3368677394        0.7227306534       -0.0572768561
 C         -4.4816964976        1.6166663465        0.0114653302
 C         -5.5854438412        1.3309658423        0.8152493225
 C         -6.6463326040        2.2138086598        0.8771420217
 C         -6.6205628942        3.3903388846        0.1451177964
 C         -5.5185071753        3.6901197599       -0.6401083854
 C         -4.4525859155        2.8140837841       -0.7030442016
 C         -3.2897175968       -0.6815547729        0.0549474629
 C         -4.3167997014       -1.6920804781        0.1338175670
 C         -4.0833678577       -2.8868899762        0.8237171111
 C         -5.0612186281       -3.8590581724        0.8929712601
 C         -6.2838734851       -3.6651639942        0.2697076739
 C         -6.5217429494       -2.4901535381       -0.4277600466
 C         -5.5515260301       -1.5116472579       -0.4991774984
 N         -1.9600862555       -0.9874999923        0.0203259163
 C          0.7563738764        1.5525285565       -0.3821243760
 C          2.1041191630        1.6894544073       -0.4332331956
 C          6.7169085501        0.0455657493        0.0701682141
 C          7.7702945529       -0.8570808462       -0.1930139772
 C          9.0479859706       -0.6012719870        0.2460986576
 C          9.3263755311        0.5533946543        0.9685147841
 C          8.3012116152        1.4476542043        1.2507155468
 C          7.0187782428        1.2047485133        0.8146266319
 H          4.6901933992        1.7815271138       -0.4128298565
 H          2.9877417099       -1.5857659898       -0.0278735956
 H          0.5868776579       -1.8305410514        0.0647550625
 H         -5.6011143013        0.4254171576        1.4038990052
 H         -7.4960131854        1.9856911307        1.5037928236
 H         -7.4542867382        4.0750097027        0.1934376819
 H         -5.4919874949        4.6111447523       -1.2036709233
 H         -3.5848844325        3.0351812942       -1.3048347916
 H         -3.1427073324       -3.0379935663        1.3350503572
 H         -4.8703667901       -4.7718449856        1.4377678297
 H         -7.0465270351       -4.4268477724        0.3256586620
 H         -7.4689885581       -2.3392234606       -0.9233418722
 H         -5.7314186441       -0.6063229190       -1.0585703650
 H         -1.5769483267       -1.9173989165        0.0309880523
 H          0.0984868893        2.4028899953       -0.4672702380
 H          2.5471292392        2.6660282576       -0.5661284757
 H          7.5593592491       -1.7540195448       -0.7563000482
 H          9.8391399258       -1.3034476033        0.0280683689
 H         10.3300826159        0.7508334002        1.3125849879
 H          8.5103018287        2.3401511250        1.8224980645
 H          6.2319855414        1.8987980281        1.0674130429
  54
  -83.2801532552000       0.210011722387457      !
 N          4.9452601549       -2.7341642213        0.7568693506
 C          5.1160873903       -1.6189504586        0.4993621341
 C          5.3805501621       -0.2863442690        0.1924396129
 C          4.3429144058        0.6972054729        0.2281397862
 C          2.9742020593        0.5170922584        0.1411569019
 C          2.3402900735       -0.7322100000       -0.1572977972
 C          0.9881906542       -0.8479152853       -0.2066741088
 C          0.1431375428        0.2675953977        0.0255209736
 C         -1.2653377304        0.1795157088        0.0075119161
 N         -2.1002099200        1.2027995221        0.1789252991
 C         -3.3496542378        0.7217146369        0.0981077481
 C         -4.4926845535        1.6166061009        0.1715192139
 C         -5.6608150163        1.3780644414       -0.5528903201
 C         -6.7178611280        2.2644259498       -0.4766943361
 C         -6.6249182706        3.3977447296        0.3157000697
 C         -5.4602435234        3.6511605516        1.0232070654
 C         -4.3982160211        2.7716943627        0.9481252723
 C         -3.3136118552       -0.6719689631       -0.1175633183
 C         -4.3437013377       -1.6794050686       -0.1891988967
 C         -5.5211179315       -1.5549486194        0.5568524881
 C         -6.4887819995       -2.5367817589        0.5015964332
 C         -6.3062191466       -3.6585810045       -0.2935012562
 C         -5.1416599138       -3.7954448324       -1.0324797613
 C         -4.1654362969       -2.8207701114       -0.9789352111
 N         -1.9854760097       -0.9769544619       -0.1915719068
 C          0.7571698986        1.5234015519        0.2814431477
 C          2.1059512466        1.6450211325        0.3288671527
 C          6.7471597868        0.0573581153       -0.0743251564
 C          7.7826857246       -0.8635475939        0.1942569964
 C          9.0972369169       -0.5440909321       -0.0530241473
 C          9.4325520985        0.6957404291       -0.5845729384
 C          8.4271088849        1.6096543364       -0.8735828797
 C          7.1081022542        1.3030260309       -0.6272398550
 H          4.6809798402        1.7147390044        0.3716039664
 H          2.9583340291       -1.5923146914       -0.3514614811
 H          0.5554158384       -1.8114829984       -0.4368997900
 H         -5.7306498015        0.5077406395       -1.1887225476
 H         -7.6178104917        2.0734557070       -1.0425317204
 H         -7.4557090097        4.0850976748        0.3748854986
 H         -5.3815934296        4.5389160493        1.6331762365
 H         -3.4825048612        2.9560683661        1.4881827981
 H         -5.6559601225       -0.6921587070        1.1912425895
 H         -7.3899779571       -2.4309741973        1.0866824100
 H         -7.0667011457       -4.4232401162       -0.3354577100
 H         -4.9949107268       -4.6657757146       -1.6547271267
 H         -3.2713962772       -2.9258956755       -1.5778079097
 H         -1.6076314984       -1.9036709649       -0.2919599457
 H          0.1073885949        2.3700600981        0.4367381876
 H          2.5583076005        2.6058450243        0.5287045609
 H          7.5289853943       -1.8263041683        0.6122849853
 H          9.8728041820       -1.2623674301        0.1685945449
 H         10.4650422155        0.9441339736       -0.7769228436
 H          8.6807131501        2.5691912679       -1.3004331149
 H          6.3424396550        2.0180101145       -0.8861496651
  54
  -83.2800397789000       0.186248781463501      !
 N          5.0450802168       -2.4216805211       -1.6857622014
 C          5.1854927674       -1.4150568968       -1.1325128082
 C          5.3894129234       -0.2054264239       -0.4752566285
 C          4.3508816533        0.7869982996       -0.4584003444
 C          2.9839077880        0.5883301433       -0.4632067223
 C          2.3641145763       -0.6989989785       -0.3685821092
 C          1.0131797453       -0.8334115306       -0.3194376781
 C          0.1587897194        0.2965075607       -0.3525280485
 C         -1.2479032782        0.1967403826       -0.2468911549
 N         -2.0915291463        1.2248823378       -0.2464347817
 C         -3.3307972249        0.7296326907       -0.0952632928
 C         -4.4874471957        1.6100239953       -0.1149179787
 C         -5.7170092906        1.1986543648       -0.6293400814
 C         -6.7895136503        2.0696155007       -0.6441100056
 C         -6.6514067619        3.3582779380       -0.1530745575
 C         -5.4269621774        3.7807001953        0.3401406310
 C         -4.3499572500        2.9164396498        0.3547347857
 C         -3.2735082207       -0.6731840160        0.0181027200
 C         -4.2729614675       -1.6802868606        0.2869826951
 C         -4.1355943661       -2.9713572305       -0.2332558460
 C         -5.0755454996       -3.9434027402        0.0467137192
 C         -6.1613234176       -3.6514371313        0.8567450855
 C         -6.3022479094       -2.3771773460        1.3858426901
 C         -5.3703590127       -1.3982979718        1.1071796950
 N         -1.9487716987       -0.9777529720       -0.1038418582
 C          0.7565192052        1.5791713034       -0.4626656371
 C          2.1042102662        1.7207540598       -0.5113894455
 C          6.6733684978        0.0254456935        0.1105260047
 C          7.7430036763       -0.8660725048       -0.1233051733
 C          8.9754072521       -0.6571780829        0.4495871534
 C          9.1899686027        0.4369733791        1.2799635049
 C          8.1468849056        1.3190786287        1.5334736580
 C          6.9094622978        1.1231915052        0.9643341543
 H          4.6931247214        1.8136024127       -0.4358534212
 H          2.9918496192       -1.5734204940       -0.3254854397
 H          0.5909641675       -1.8256931591       -0.2433994434
 H         -5.8247415848        0.2024325238       -1.0328076230
 H         -7.7379801137        1.7431426563       -1.0449271975
 H         -7.4944709378        4.0330975753       -0.1619259929
 H         -5.3139636706        4.7876918287        0.7139657802
 H         -3.3887062928        3.2301106578        0.7310330215
 H         -3.3048427542       -3.2027373697       -0.8855246417
 H         -4.9625665908       -4.9328614258       -0.3710237205
 H         -6.8937877627       -4.4134742621        1.0751995799
 H         -7.1418956743       -2.1478950901        2.0247340745
 H         -5.4702572285       -0.4126990258        1.5358622275
 H         -1.5573487480       -1.9013490321       -0.0295357861
 H          0.0972102711        2.4319140325       -0.4998919946
 H          2.5458812385        2.7035566535       -0.5923442598
 H          7.5809268978       -1.7160912138       -0.7696338162
 H          9.7808013517       -1.3495249169        0.2535976207
 H         10.1579147853        0.5964194949        1.7300159240
 H          8.3055641017        2.1634466621        2.1885779314
 H          6.1043936538        1.8041104286        1.1942148180
  54
  -83.2800182515000       0.182053960813829      !
 N          4.9943970374       -2.3376533769       -1.8051256324
 C          5.1533990578       -1.3599770008       -1.2068511191
 C          5.3835580260       -0.1865257873       -0.4944854645
 C          4.3479868648        0.8006615986       -0.3775037850
 C          2.9801847790        0.6049162306       -0.3669973330
 C          2.3576518958       -0.6845332332       -0.3450316896
 C          1.0068507943       -0.8191641248       -0.2964357917
 C          0.1546474402        0.3125693920       -0.2567935067
 C         -1.2523367168        0.2088927550       -0.1669614483
 N         -2.0950065067        1.2364646868       -0.1068003737
 C         -3.3362667012        0.7346510660       -0.0052418850
 C         -4.4914703839        1.6168108770        0.0179610266
 C         -5.7120186878        1.2458505681       -0.5463978695
 C         -6.7833412669        2.1179254809       -0.5180801355
 C         -6.6526335533        3.3681664735        0.0656445644
 C         -5.4367167941        3.7518551918        0.6091666427
 C         -4.3610309040        2.8862128537        0.5816428272
 C         -3.2822665741       -0.6732401434        0.0135678744
 C         -4.2879241163       -1.6925937435        0.1979897303
 C         -5.4016007007       -1.4603186065        1.0123383220
 C         -6.3425555172       -2.4507407351        1.2062096784
 C         -6.1944682379       -3.6883832835        0.5977244684
 C         -5.0921621920       -3.9318365659       -0.2061838151
 C         -4.1435255539       -2.9478090590       -0.4023887686
 N         -1.9564261066       -0.9714232782       -0.1117123802
 C          0.7556010305        1.5985825732       -0.2805243444
 C          2.1032585485        1.7399725169       -0.3272779253
 C          6.6949901121        0.0171134305        0.0401332429
 C          7.7549254057       -0.8498845265       -0.3036305544
 C          9.0153647968       -0.6656909811        0.2143573159
 C          9.2684896266        0.3778106811        1.0973887774
 C          8.2355039189        1.2331810481        1.4603787103
 C          6.9704230131        1.0618272691        0.9468710951
 H          4.6924647982        1.8230238026       -0.2919859096
 H          2.9834250632       -1.5611912011       -0.3575003610
 H          0.5827297247       -1.8134450705       -0.2790202024
 H         -5.8136175320        0.2808161064       -1.0211756478
 H         -7.7245974639        1.8229880650       -0.9581504742
 H         -7.4943100208        4.0443719160        0.0887020855
 H         -5.3289649257        4.7300881964        1.0540622081
 H         -3.4058717358        3.1710069417        0.9946104606
 H         -5.5083503180       -0.5041664044        1.5018025906
 H         -7.1951841605       -2.2596619254        1.8404927756
 H         -6.9334777589       -4.4600378061        0.7511962455
 H         -4.9718568449       -4.8934925366       -0.6828279109
 H         -3.2983850261       -3.1414059591       -1.0484451374
 H         -1.5668870725       -1.8986629730       -0.0963487734
 H          0.0984781751        2.4535103370       -0.2576860317
 H          2.5469816055        2.7251065004       -0.3432282545
 H          7.5635813943       -1.6594032462       -0.9924115907
 H          9.8131822716       -1.3365860773       -0.0683873025
 H         10.2586592072        0.5188158879        1.5029017895
 H          8.4240713337        2.0362996567        2.1579991213
 H          6.1746691542        1.7182656281        1.2640009774
  54
  -83.2798911083000       0.159136265793922      !
 N          4.9316086361       -2.7080262708        0.7853026618
 C          5.1013008166       -1.6000170758        0.4977739593
 C          5.3745474085       -0.2784085496        0.1517887488
 C          4.3353068111        0.6894138034        0.0133065540
 C          2.9685287486        0.4992471910       -0.0956805324
 C          2.3305784068       -0.7759879861       -0.2343889173
 C          0.9783893546       -0.8932069508       -0.2674837928
 C          0.1360377918        0.2460019713       -0.1818404177
 C         -1.2709164833        0.1600118681       -0.1523484373
 N         -2.1009355307        1.1998499217       -0.0725855479
 C         -3.3500381043        0.7162588459       -0.0308399461
 C         -4.4828269734        1.6111271274        0.1415207904
 C         -5.6013381751        1.2420308629        0.8891656480
 C         -6.6469489770        2.1291811067        1.0575360485
 C         -6.5916560943        3.3917740571        0.4884084316
 C         -5.4753063767        3.7720501691       -0.2397952520
 C         -4.4241876760        2.8921213802       -0.4076763893
 C         -3.3225543216       -0.6934534078       -0.1039765563
 C         -4.3642264472       -1.6881816041       -0.1652395389
 C         -4.1557089307       -2.9667013450        0.3656313797
 C         -5.1500110347       -3.9222119240        0.3036909375
 C         -6.3645258290       -3.6285686480       -0.2964468008
 C         -6.5774033924       -2.3695889187       -0.8386775394
 C         -5.5912999665       -1.4067908488       -0.7774054061
 N         -1.9965351641       -1.0108378247       -0.1630683793
 C          0.7552856798        1.5244454337       -0.1132966155
 C          2.1039434767        1.6460534116       -0.0793568648
 C          6.7620784707        0.0727329461        0.0261139510
 C          7.7638738614       -0.8020250747        0.4983086054
 C          9.0961186275       -0.4739466210        0.4024892071
 C          9.4849654606        0.7288210012       -0.1750628367
 C          8.5161052031        1.5942499908       -0.6663313516
 C          7.1794761678        1.2783453634       -0.5725335907
 H          4.6649989332        1.7189514784        0.0434253379
 H          2.9453137037       -1.6559840765       -0.3142962495
 H          0.5425072085       -1.8774965124       -0.3680611580
 H         -5.6396569358        0.2673445258        1.3533684259
 H         -7.5077606032        1.8364887136        1.6406928758
 H         -7.4135160635        4.0798589400        0.6197417197
 H         -5.4257162839        4.7589338086       -0.6757562947
 H         -3.5453883385        3.1741821656       -0.9664459636
 H         -3.2222081057       -3.1985004332        0.8594566165
 H         -4.9788588272       -4.9004413256        0.7281592534
 H         -7.1402266271       -4.3775746086       -0.3429529804
 H         -7.5180431247       -2.1399698881       -1.3164098438
 H         -5.7519467138       -0.4340241611       -1.2167902027
 H         -1.6249088230       -1.9406626518       -0.2565847849
 H          0.1084308908        2.3865636951       -0.0756820419
 H          2.5594192759        2.6238582007       -0.0147064815
 H          7.4690125276       -1.7348571424        0.9552653621
 H          9.8430602836       -1.1559459623        0.7813444209
 H         10.5308199546        0.9852064344       -0.2471280106
 H          8.8126988618        2.5232033581       -1.1313533126
 H          6.4489730840        1.9547083066       -0.9888414477
