  60
        -91.79109009
 C         -2.2004764991        3.2564996829       -1.7709827046
 C         -0.8691482499        3.0524395790       -1.4581503275
 C         -0.4808885687        1.9368415115       -0.7186821884
 C          0.9322634711        1.6981588439       -0.3954664118
 C          1.7828411336        2.7499493340       -0.0463080251
 C          3.1053940932        2.5066241663        0.2258142323
 C          3.6525175658        1.2164279099        0.1733897066
 C          5.0635160191        0.9734195657        0.4058509588
 C          5.9600184329        2.0248205368        0.6445933528
 C          7.3037252066        1.8045281014        0.8291658023
 C          7.8019157030        0.5093186061        0.7707028262
 C          6.9441723926       -0.5395504993        0.5410507683
 C          5.5671306223       -0.3449752161        0.3642368134
 C          4.6644836928       -1.4601858888        0.1388062648
 C          5.1121516911       -2.7878867351        0.1878295052
 C          4.2651063042       -3.8479879447       -0.0297893623
 C          2.9240354803       -3.6113281559       -0.3021219426
 C          2.4564525436       -2.3197793468       -0.3431174762
 C          3.2991268620       -1.2203638985       -0.1266631570
 C          2.7926273330        0.1408203452       -0.1368680038
 C          1.4535954064        0.4181417498       -0.4305524375
 C         -1.4565267459        1.0420449891       -0.2925973633
 C         -2.7922130419        1.2389198665       -0.6195704429
 N         -3.7514345051        0.3045871553       -0.2051385081
 C         -4.9373125935        0.5850043063        0.4429356737
 C         -5.4436592635        1.8033988945        0.8723197191
 C         -6.6601048648        1.8013753061        1.5273485529
 C         -7.3587424697        0.6189507414        1.7618080504
 C         -6.8482976863       -0.5986894769        1.3591361089
 C         -5.6269726612       -0.6227024089        0.6986593451
 C         -4.8098230227       -1.6791074383        0.1711009714
 C         -4.9548304390       -3.0587344918        0.1064835404
 C         -3.9646602209       -3.8005793695       -0.5055576363
 C         -2.8488838404       -3.1820290901       -1.0652250037
 C         -2.6829156039       -1.8115017620       -1.0142218520
 C         -3.6610909131       -1.0624677534       -0.3756727764
 C         -3.1659813348        2.3533000507       -1.3647601364
 H         -2.4893165581        4.1206636242       -2.3510444301
 H         -0.1214397974        3.7485843255       -1.8070529746
 H          1.3936981017        3.7548387617        0.0243207187
 H          3.7258861676        3.3467728183        0.4913568346
 H          5.6052919861        3.0418730177        0.6798223006
 H          7.9694018497        2.6355427424        1.0102637837
 H          8.8583392972        0.3265035919        0.9020274603
 H          7.3623327144       -1.5315778403        0.4897605378
 H          6.1438324943       -3.0037049071        0.4122697394
 H          4.6405085333       -4.8595691479        0.0167439073
 H          2.2491613505       -4.4371620388       -0.4722365318
 H          1.4071251155       -2.1711159869       -0.5392598376
 H          0.7924947944       -0.3815290102       -0.7213658858
 H         -1.1842691296        0.1987772814        0.3246167069
 H         -4.9013168104        2.7230007890        0.7116036386
 H         -7.0771203675        2.7374612411        1.8688267653
 H         -8.3082878876        0.6603962523        2.2745966043
 H         -7.3816040087       -1.5167932034        1.5548546073
 H         -5.8282764875       -3.5362305309        0.5242601370
 H         -4.0566280110       -4.8750303143       -0.5634177363
 H         -2.0997131630       -3.7872095414       -1.5545800287
 H         -1.8273611217       -1.3387449505       -1.4731177326
 H         -4.2017521691        2.4960323742       -1.6328019651
