  69
       -112.09517957
 N        -10.4974346190       -2.7588561936        0.5839200062
 C         -9.4628503335       -2.2762526228        0.4689759480
 C         -8.1892461201       -1.6819343754        0.3303802420
 C         -7.9176080341       -0.8640941821       -0.7682883929
 C         -6.6728781198       -0.2834474265       -0.8976757955
 C         -5.6836460740       -0.5006794565        0.0604073349
 C         -4.3578504456        0.1348993834       -0.0786976854
 C         -3.9703847518        1.1376653431        0.8218997341
 C         -4.8309276255        1.5892393599        1.8572875062
 C         -4.4322004039        2.5446992353        2.7403783867
 C         -3.1433746259        3.1062566985        2.6461358402
 C         -2.2978135705        2.7204889923        1.6522688180
 C         -2.6830067308        1.7461972614        0.6936263331
 C         -1.8313243760        1.3620811463       -0.3522877670
 C         -0.5107588804        2.0095888887       -0.4994352123
 C         -0.4178985506        3.3548302186       -0.8490445128
 C          0.8203971869        3.9599529840       -0.9898241820
 C          1.9786703491        3.2366344740       -0.7850316855
 C          1.8981382095        1.8879158733       -0.4360834488
 C          3.1105533586        1.1287694967       -0.2318249221
 N          4.3247311115        1.5916312345       -0.3106943149
 C          5.1320538111        0.5219567296       -0.0515360061
 C          6.5511935351        0.4286740974        0.0007284945
 C          7.3653140886        1.5418754939       -0.2285257659
 C          8.7319173994        1.4244845057       -0.1704129536
 C          9.3008104254        0.1860058979        0.1194816796
 C          8.5097295421       -0.9160974734        0.3462588634
 C          7.1093534159       -0.8394310668        0.2956755985
 C          6.2557360122       -1.9919964688        0.5306495038
 C          6.7648215311       -3.2666293809        0.8190701840
 C          5.9375004534       -4.3440893794        1.0368205636
 C          4.5523055730       -4.2037015483        0.9780235983
 C          4.0104401027       -2.9743938138        0.6989375497
 C          4.8429426614       -1.8707028418        0.4749141498
 C          4.3313430786       -0.5848184887        0.1803076597
 O          3.0409860777       -0.1959367608        0.0656887916
 C          0.6526090712        1.2806292673       -0.2941640718
 C         -2.2248094638        0.3677063106       -1.2598007483
 C         -1.3977799241       -0.0254729074       -2.3452141672
 C         -1.7774179403       -1.0130254765       -3.2008799430
 C         -3.0097388723       -1.6728210414       -3.0230438706
 C         -3.8440390411       -1.3076597498       -2.0120427346
 C         -3.4977201641       -0.2662418245       -1.1109380394
 C         -5.9634726985       -1.3199225326        1.1532222604
 C         -7.2026112416       -1.9103437086        1.2915622092
 H         -8.6854555177       -0.6911269367       -1.5080523921
 H         -6.4587170072        0.3539208570       -1.7438420217
 H         -5.8194438697        1.1609494447        1.9332510279
 H         -5.0990106688        2.8765538604        3.5223482424
 H         -2.8352463227        3.8479777074        3.3678877648
 H         -1.3106985172        3.1520848693        1.5809314014
 H         -1.3232764154        3.9203034408       -1.0166072755
 H          0.8777034286        5.0031821156       -1.2625413719
 H          2.9523532794        3.6869725281       -0.8898784748
 H          6.8857872471        2.4829463615       -0.4488331392
 H          9.3645149852        2.2816107090       -0.3463254235
 H         10.3757144152        0.0894234446        0.1670068940
 H          8.9928857736       -1.8543764280        0.5674552789
 H          7.8301716301       -3.4225509928        0.8738699075
 H          6.3668020108       -5.3108687499        1.2551934141
 H          3.9138580966       -5.0571510455        1.1502277038
 H          2.9410773087       -2.8333197627        0.6456144759
 H          0.5927649879        0.2384456061       -0.0169045737
 H         -0.4528368774        0.4783179063       -2.4829834931
 H         -1.1360821436       -1.3017000088       -4.0203447411
 H         -3.2874321274       -2.4679319216       -3.6990468125
 H         -4.7881895734       -1.8149945492       -1.8789737371
 H         -5.1962818072       -1.4934903859        1.8935712687
 H         -7.4184258081       -2.5457861754        2.1377800106
