  92
       -134.95233653
 C         -0.7413538948       -1.2510251587        2.2490246924
 C         -1.4612922365       -0.6006330670        1.1058937023
 C         -2.8465090512       -0.5928719795        1.0540046141
 C         -3.5299802262       -0.0072708817       -0.0056764493
 C         -5.0078577154       -0.0193981132       -0.0418526707
 C         -5.7346685226        0.7869158681        0.8450463125
 C         -5.0891024197        1.6436437857        1.7747520119
 C         -5.8042889111        2.4101846602        2.6425736740
 C         -7.2125194142        2.3641232219        2.6373272702
 C         -7.8703756515        1.5699752994        1.7491496784
 C         -7.1637804679        0.7698947718        0.8132157419
 C         -7.8308172122       -0.0363987240       -0.1197150547
 C         -9.3090064447       -0.0400450867       -0.1642759032
 C        -10.0009017550        1.0663864347       -0.6473593355
 C        -11.3832444918        1.0631411161       -0.6916141828
 C        -12.0908049293       -0.0423962290       -0.2495945583
 C        -11.4097075855       -1.1467334726        0.2345806526
 C        -10.0270381543       -1.1476789375        0.2752675754
 C         -7.1039278393       -0.8360127954       -1.0128695597
 C         -7.7481125289       -1.6443841709       -1.9859173779
 C         -7.0325696993       -2.4298593063       -2.8364822630
 C         -5.6257448239       -2.4583684209       -2.7644576499
 C         -4.9688079259       -1.6836839098       -1.8586154317
 C         -5.6751398843       -0.8356116618       -0.9658993856
 C         -2.8030971692        0.5888521912       -1.0298921434
 C         -1.4223693949        0.5967549833       -0.9837918122
 C         -0.7424324714        0.0042599308        0.0725492485
 C          0.7374568909        0.0102519708        0.0833291575
 C          1.4348399281       -1.1076395099       -0.3608095583
 C          2.8132949048       -1.1241786420       -0.3765584518
 C          3.5397302485       -0.0068554745        0.0465250884
 C          4.9972403133       -0.0050102163        0.0106033188
 C          5.6910102992        1.0287554986       -0.6903437466
 C          5.0135396265        2.0160044400       -1.4111421383
 C          5.6933489438        3.0693542293       -2.0205802408
 C          7.0644477835        3.1518520217       -1.9169910520
 C          7.7707280657        2.1453475297       -1.2606456680
 C          7.1184212775        1.0487047539       -0.6901635371
 C          7.8425324025       -0.0300421793       -0.0979878467
 C          9.3012512359       -0.0488955905       -0.1689657704
 C          9.9577407573        0.0112619744       -1.4020300478
 C         11.3365856297       -0.0153244534       -1.4701716299
 C         12.0929579977       -0.0893320351       -0.3110412601
 C         11.4560511440       -0.1420491051        0.9189970087
 C         10.0772264278       -0.1284489887        0.9914161626
 C          7.1482814923       -1.0910977887        0.5577318942
 C          7.8210580272       -2.1978224711        1.0834136665
 C          7.1476762832       -3.1868391081        1.7983926970
 C          5.7901282450       -3.0783314531        2.0049471509
 C          5.0857297891       -2.0154782693        1.4412317577
 C          5.7256513226       -1.0447370684        0.6661908535
 C          2.8283214234        1.1101821204        0.4953578719
 C          1.4455845947        1.1328492182        0.5234722805
 C          0.7089361400        2.3417019732        1.0180434059
 H         -1.4269643952       -1.4661182779        3.0650535206
 H         -0.2887439644       -2.1879221517        1.9242114137
 H          0.0597755773       -0.6114284310        2.6163241126
 H         -3.4130799972       -1.0575931807        1.8493890825
 H         -4.0096354016        1.6780582388        1.7783459534
 H         -5.2987246976        3.0580355301        3.3438809129
 H         -7.7643517094        2.9677035227        3.3431106543
 H         -8.9498210049        1.5351788785        1.7449114229
 H         -9.4456595175        1.9269573290       -0.9930283684
 H        -11.9103885006        1.9260776359       -1.0720061936
 H        -13.1704085338       -0.0432526102       -0.2826557727
 H        -11.9577617765       -2.0106999921        0.5819220714
 H         -9.4931206917       -2.0074650113        0.6547381782
 H         -8.8265354811       -1.6231821162       -2.0409447850
 H         -7.5373506282       -3.0396280209       -3.5715813624
 H         -5.0742865306       -3.0988563612       -3.4372918151
 H         -3.8904090664       -1.7043221204       -1.8036689751
 H         -3.3251389351        1.0494350212       -1.8560979326
 H         -0.8569503236        1.0595593608       -1.7804993899
 H          0.8802764350       -1.9681378130       -0.7082207149
 H          3.3417121247       -1.9879017356       -0.7528005280
 H          3.9400592567        1.9619377807       -1.5061751297
 H          5.1362356372        3.8213143143       -2.5594275424
 H          7.6005355527        3.9819348484       -2.3523836932
 H          8.8451086557        2.2194037945       -1.1900461786
 H          9.3704606281        0.0480870530       -2.3084507966
 H         11.8258857015        0.0189812205       -2.4329827567
 H         13.1712986238       -0.1052278647       -0.3656932086
 H         12.0397923388       -0.1913772615        1.8269671986
 H          9.5841523467       -0.1492320555        1.9528796481
 H          8.8849738208       -2.2944728981        0.9304255534
 H          7.6998316981       -4.0249125658        2.1968854183
 H          5.2615805388       -3.8173077308        2.5886612584
 H          4.0229381884       -1.9414564066        1.6135745619
 H          3.3802510517        1.9659746931        0.8589561741
 H          0.2016726838        2.8395575983        0.1918357367
 H         -0.0519397322        2.0588606642        1.7439926410
 H          1.3932479723        3.0491891083        1.4796642723
