92
 energy: -135.021786850070 gnorm: 0.000183666876 xtb: 6.7.1 (edcfbbe)
C           -0.70127081562494       -1.69280080394804       -1.80244695054656
C           -1.44222386452395       -0.81082425566940       -0.84282937414177
C           -2.82757416341607       -0.78086384291870       -0.83097975843445
C           -3.52835068201016        0.04195244027873        0.04423154917984
C           -5.00604770310586        0.06083183486417        0.02778230027848
C           -5.72373788245291       -1.05468511964007        0.48122117762380
C           -5.06922033293109       -2.20539224415084        0.99444734236625
C           -5.77458851087002       -3.29173589434400        1.41100401208279
C           -7.18187098144734       -3.29689581005497        1.33616649944326
C           -7.84867722621866       -2.20568307417040        0.87143050683314
C           -7.15289860134792       -1.04281244824651        0.44749347782712
C           -7.82989524581498        0.09545615890578       -0.01196542783879
C           -9.30833739832826        0.11297063395725       -0.03387808195698
C          -10.03081693523287        0.16590206112836        1.15402425620620
C          -11.41365891796677        0.18407530268321        1.13226292132984
C          -12.09105573798787        0.14512834312900       -0.07501126183763
C          -11.37938053843290        0.09017113990793       -1.26172255785085
C           -9.99643618726700        0.07640617269231       -1.24261105842566
C           -7.11254283564285        1.21688243092064       -0.45117089751857
C           -7.76764111449708        2.39607895532126       -0.89446829445621
C           -7.06162768104794        3.47045269597794       -1.34010701503413
C           -5.65334909961496        3.43096275664347       -1.37506490694465
C           -4.98658188364647        2.32800199801792       -0.93905997749456
C           -5.68312547909776        1.19381360901965       -0.44469508237716
C           -2.81850372292562        0.84574365441008        0.92874360758114
C           -1.43684163440343        0.81917812194813        0.93080385682312
C           -0.74071321043742        0.00059320424641        0.05178714304870
C            0.74022468938100        0.00436423890479        0.05838876510512
C            1.42695312168781        0.82304345716920       -0.82806321689217
C            2.80832136136490        0.84895838383058       -0.84148202981930
C            3.52756187001870        0.04384537453890        0.03425571683037
C            5.00546416563294        0.05600011614122        0.02054566695074
C            5.69774889558501        1.18523942419585        0.47938607484457
C            5.01710214857980        2.31786577066228        0.99876962087491
C            5.69767018476233        3.41797169675123        1.42041725291435
C            7.10441015858896        3.45589026621590        1.34474603197237
C            7.79589724994975        2.38294601282086        0.87356561563855
C            7.12671423688224        1.20664912779385        0.44388217053463
C            7.82913713456996        0.08729688269762       -0.02382658257605
C            9.30752093343258        0.10531216601020       -0.05035294106502
C            9.99036766267046        0.16838999351302       -1.26096989605564
C           11.37315809682591        0.18868379508296       -1.28461300683664
C           12.09001116251119        0.14163328626622       -0.10064529250566
C           11.41789178213402        0.07628380217260        1.10841174710409
C           10.03508172219085        0.06046621519293        1.13474056114124
C            7.13733288518091       -1.04814234201005       -0.46784867032619
C            7.81884760707104       -2.20884218158292       -0.92000210148885
C            7.13720216244684       -3.29699072005559       -1.37014016973699
C            5.72824609808886       -3.29089469216178       -1.40072145187935
C            5.03686877463950       -2.20644531250595       -0.95673626830892
C            5.70776927350513       -1.05864778991189       -0.45832069005940
C            2.83640878053548       -0.77480500997173        0.92081447102235
C            1.45102710618947       -0.80354744555090        0.94859618079403
C            0.71951182859451       -1.68391830294845        1.91678901559903
H           -0.17000521800125       -1.08850842301293       -2.53759601570191
H            0.04082273784951       -2.29474386178233       -1.27958679836671
H           -1.38632919528701       -2.35405330397425       -2.32748785884819
H           -3.38155220774706       -1.40294440516620       -1.52073895736244
H           -3.99076149170008       -2.20099130960829        1.05136107664430
H           -5.26224277838300       -4.15982093926031        1.79965834233544
H           -7.72561723199845       -4.17422330470510        1.65497043659244
H           -8.92723649716687       -2.20953752532639        0.81558288185188
H           -9.49950050518455        0.19880097325553        2.09464319544546
H          -11.96473825684078        0.22856404567240        2.06048158962504
H          -13.17096453933676        0.15754099085188       -0.09097385819898
H          -11.90367264502873        0.05873472694892       -2.20592399286223
H           -9.43851564706133        0.03213499662890       -2.16730822788091
H           -8.84693243093590        2.42616505454732       -0.86898539121834
H           -7.57454631785701        4.36067293323348       -1.67390683361934
H           -5.10911122635483        4.28616900643692       -1.74851882600188
H           -3.90738890048112        2.29805805434785       -0.96492039543729
H           -3.35376597397532        1.48504273634251        1.61583423083328
H           -0.88429922975255        1.44516460734695        1.61748872354538
H            0.86687897716819        1.44733685566610       -1.51014114395079
H            3.33640388427638        1.48706515945076       -1.53519590767992
H            3.93903637515321        2.28873646645218        1.05546821518435
H            5.16568643927694        4.27212833080710        1.81340082822684
H            7.62798584657034        4.34392055987436        1.66765223115710
H            8.87402114469026        2.41208030717054        0.81677757731752
H            9.42834925392705        0.20751704498118       -2.18334630223207
H           11.89333683922321        0.24122938351688       -2.23011972392334
H           13.16984244020946        0.15591100899913       -0.12017773505697
H           11.97303603563681        0.03800456080760        2.03451822189625
H            9.50796197898246        0.00725305229418        2.07680507762176
H            8.89863674300744       -2.21328450265163       -0.89806499072045
H            7.67013287921220       -4.17248957265634       -1.71143506210584
H            5.20350812921177       -4.15665276929059       -1.77786175507930
H            3.95716640339112       -2.20138665576108       -0.97968725595589
H            3.39776765346789       -1.39570015248563        1.60564819386542
H            1.41252499785426       -2.32518511795685        2.45594551563450
H            0.17187884045868       -1.07861629473239        2.63883647646905
H           -0.00780095335377       -2.30703187897096        1.39762656482924
