92
 energy: -134.957914484151 gnorm: 0.000134878626 xtb: 6.7.1 (edcfbbe)
C           -0.71376935382849       -1.26884885826259        2.15394229454989
C           -1.44929760485259       -0.61425706486494        1.02327203135100
C           -2.83472297701259       -0.60512814822474        0.98921399325303
C           -3.53127612722851       -0.01136073481815       -0.05769765635084
C           -5.00930680644866       -0.01759254846665       -0.07041975394303
C           -5.71811329521790        0.76636839989739        0.85045338952543
C           -5.05391445693038        1.59931231525424        1.78906256904187
C           -5.75099688086175        2.34011111838916        2.69267638189017
C           -7.15922466812391        2.29094860180601        2.71686388354242
C           -7.83488017920128        1.52202529317288        1.82040373622071
C           -7.14765102381260        0.75020846055528        0.84668495052503
C           -7.83355276189369       -0.02875923716455       -0.09557085590739
C           -9.31223227514170       -0.03512933843759       -0.10839604867060
C          -10.01926073207309        1.08719753382999       -0.52832461823483
C          -11.40235029251062        1.07887988536890       -0.54177712496116
C          -12.09539429812785       -0.04787818950128       -0.13196818065583
C          -11.39912265495247       -1.16834572199881        0.28953046904635
C          -10.01603459432276       -1.16395513912905        0.29947974767411
C           -7.12480999605526       -0.80227352811972       -1.02538185448152
C           -7.78845556613883       -1.57958727273554       -2.01099277165111
C           -7.09077364326570       -2.34332750919146       -2.89493871665713
C           -5.68287012808277       -2.38111672846997       -2.84575607319509
C           -5.00781869573620       -1.63457308229794       -1.93020447460308
C           -5.69537046825092       -0.80708666497677       -1.00371682539903
C           -2.81699359703157        0.58752894001304       -1.08899261928467
C           -1.43549235159101        0.59192203602934       -1.06179312459559
C           -0.74317716833793       -0.00452584914946       -0.01627156110697
C            0.73699396307179        0.00521895798752       -0.01460822884551
C            1.43620435373036       -1.10110104463579       -0.48168885254797
C            2.81574905790881       -1.11698707057686       -0.48831134758099
C            3.53595587979967       -0.01101585080251       -0.03283954552557
C            4.99779887995992       -0.01226209237346       -0.04166765684354
C            5.70595461011939        1.00716815888506       -0.75243383808320
C            5.04030587495413        1.97775605110406       -1.50302548468027
C            5.73274522572104        3.01082817484694       -2.13536431561716
C            7.10198409105282        3.08743356365763       -2.02198588342062
C            7.79646489738754        2.09967453792239       -1.32312727636540
C            7.13207872758162        1.02823308956134       -0.72357037221296
C            7.84344512217382       -0.02692516354877       -0.07135799268845
C            9.30688627264713       -0.03708512806715       -0.09192853813150
C           10.00395511830907       -0.05201265691495       -1.30229626847974
C           11.38506062057057       -0.06848310003034       -1.32043867667147
C           12.09979294618346       -0.05892171599155       -0.13325508864492
C           11.42072676142998       -0.03806431753127        1.07450528337863
C           10.03953270426626       -0.03280540609188        1.09726408002287
C            7.13547341992195       -1.07267994684079        0.59913904806567
C            7.80053939263500       -2.15024194470836        1.18702687474048
C            7.11015288101638       -3.12845969758038        1.90317655207129
C            5.74450237155574       -3.03673136254602        2.04521197427851
C            5.05023261401244       -1.99771614976015        1.42457906639847
C            5.71061321525404       -1.03630695894881        0.65780645715582
C            2.82453007860787        1.09804497522394        0.43001251449794
C            1.44110160743406        1.12000264655343        0.44993182905592
C            0.70003029523132        2.31812302336257        0.96334876622548
H           -1.39730434395014       -1.53640221364971        2.95610773621845
H           -0.21718102702002       -2.17475069448716        1.80643907495929
H            0.05560735790155       -0.60685391838121        2.54905509345240
H           -3.39187910833993       -1.07389080394802        1.78887514106888
H           -3.97472969042407        1.63626495511202        1.77028384519984
H           -5.23137794071352        2.96943055692038        3.40053404580318
H           -7.69649472755998        2.87244868036502        3.45184761787186
H           -8.91412543919064        1.48559072802359        1.83849335245072
H           -9.47596000177585        1.96453185519613       -0.84972208712966
H          -11.94137317979169        1.95486746287789       -0.87261946749870
H          -13.17544924232015       -0.05281668341288       -0.14106916174254
H          -11.93562317202302       -2.04929569214005        0.61115001924699
H           -9.47012054489880       -2.03632271423237        0.62986247045127
H           -8.86746126102067       -1.55171578964326       -2.04839450958988
H           -7.61021734365319       -2.92940565009901       -3.63903701738876
H           -5.14559024718815       -3.00593818858191       -3.54429056024328
H           -3.92885591732498       -1.66214315896353       -1.89312352795020
H           -3.34889248289490        1.05390839936378       -1.90562187111715
H           -0.87989689701580        1.05733134958430       -1.86390998748175
H            0.88440908758594       -1.95458796799654       -0.85031060283164
H            3.34766746703201       -1.97454077502367       -0.87387093744353
H            3.96687137758185        1.92869588325291       -1.60265289378699
H            5.18484056829286        3.75003020217135       -2.70069392152092
H            7.64818958928273        3.89883975892849       -2.47957718188691
H            8.87049241107193        2.17056308163407       -1.24366824759565
H            9.44855210106367       -0.07663525861756       -2.22903962656393
H           11.90817324226449       -0.09098393696853       -2.26564002084079
H           13.17954567190581       -0.06761982173552       -0.14925396061926
H           11.97185605377426       -0.02386271442882        2.00381839421711
H            9.51235048440131        0.00085729351257        2.04007523822787
H            8.87167228510448       -2.23371254376583        1.08446540158801
H            7.65695790873144       -3.94478804378801        2.35117263284693
H            5.20062779949465       -3.76878927174065        2.62355358012035
H            3.97943465016084       -1.93725410087170        1.54517184605212
H            3.37491066826277        1.94848520335353        0.80834345928082
H            0.15192762122981        2.79988256489423        0.15395530048306
H           -0.02757482169480        2.02538978171411        1.71930638194716
H            1.38693663889419        3.04145603255979        1.39586531913839
