92
 energy: -135.021734395756 gnorm: 0.000187997661 xtb: 6.7.1 (edcfbbe)
C           -0.70287873886122        1.53193967698624        1.91663988431674
C           -1.44221889082077        0.68261106284791        0.92669944809686
C           -2.82785109065291        0.65753913267594        0.90961836158985
C           -3.52813641018737       -0.12227109505624       -0.00387632360222
C           -5.00679417743658       -0.12531132229989       -0.00464302145397
C           -5.70386711055983        0.52227285077865       -1.03359111503234
C           -5.02648171268768        1.21076084196489       -2.07422952314966
C           -5.71228141492260        1.84951051936491       -3.06052086247410
C           -7.12159212423689        1.85012379420335       -3.06062895869617
C           -7.80902243437898        1.21090277519409       -2.07559800094047
C           -7.13346035833466        0.52057116222117       -1.03488749393352
C           -7.83050642969890       -0.13161466756696       -0.00828674693659
C           -9.30934618329017       -0.13546329120874       -0.01046325070945
C          -10.01130178768253       -0.88916120646867       -0.94583017841054
C          -11.39444671559581       -0.89381688037380       -0.94554959730747
C          -12.09253391708849       -0.14312888755165       -0.01443858504921
C          -11.40126919258392        0.61142643970364        0.91862983659481
C          -10.01812719026950        0.61438226735699        0.92285389004727
C           -7.13314566027684       -0.78023402630841        1.02037815810346
C           -7.80825096436403       -1.47350571226709        2.05942395635288
C           -7.12041715110479       -2.10893443343421        3.04663073026518
C           -5.71112962564046       -2.10130854942666        3.05054448911329
C           -5.02563708692255       -1.45983230172577        2.06581527097975
C           -5.70355256514937       -0.77536232385643        1.02289429819174
C           -2.81858492226107       -0.89511073746854       -0.91552412102212
C           -1.43690348690448       -0.88081124466243       -0.90580011312475
C           -0.74041472122788       -0.09799132939903        0.00525267969436
C            0.74039412855272       -0.09789712368466       -0.00543972928384
C            1.43683688132782       -0.87850577369952        0.90754951572661
C            2.81850969164621       -0.89256489961402        0.91757329819918
C            3.52811801533847       -0.12170880370041        0.00428422519955
C            5.00676648205719       -0.12498340632868        0.00517698554497
C            5.70338086805124       -0.77736866310818       -1.02098965101361
C            5.02535938779325       -1.46360441707913       -2.06268229152015
C            5.71074997227270       -2.10724143977875       -3.04607178665964
C            7.12003125019366       -2.11544838146482       -3.04192690265108
C            7.80796059062575       -1.47836062574132       -2.05585875320346
C            7.13296139168311       -0.78278744528236       -1.01828377351278
C            7.83046347600266       -0.13238513845507        0.00916669851219
C            9.30930972488616       -0.13635772294595        0.01099492531559
C           10.01158387224556       -0.88856261412336        0.94726949054397
C           11.39474455527389       -0.89383891723710        0.94618248093794
C           12.09248626311748       -0.14463518243061        0.01360652826525
C           11.40095288549018        0.60832915205482       -0.92049564203842
C           10.01782160679856        0.61178753511739       -0.92395668618597
C            7.13358475954256        0.52195396755876        1.03447317193225
C            7.80931882734606        1.21364305308830        2.07416607275752
C            7.12202375938903        1.85500373237263        3.05789794366577
C            5.71270908873229        1.85566276421580        3.05718845055031
C            5.02676789218031        1.21532230287466        2.07202311608210
C            5.70398548076771        0.52433606489977        1.03293252095124
C            2.82788530621868        0.65591010606691       -0.91111416241885
C            1.44224582580002        0.68071393117632       -0.92852770910181
C            0.70295579005405        1.52760823203065       -1.92059020846536
H           -0.19799372412133        0.90465522432746        2.65112110758312
H            0.05993904115616        2.12860744763278        1.41821210359533
H           -1.38542199098470        2.19619727325151        2.44114220804681
H           -3.38213523510532        1.26090212119393        1.61554122664128
H           -3.94654626799656        1.22293782096484       -2.06418877639729
H           -5.18298124665266        2.36903071769702       -3.84603426523334
H           -7.65030324249935        2.37082363287526       -3.84570574136700
H           -8.88890955746700        1.22550152391902       -2.06756890371898
H           -9.46397303565274       -1.47593658648276       -1.66991104761720
H          -11.92957761747525       -1.48497328286142       -1.67459049369626
H          -13.17262530298858       -0.14614807373374       -0.01594535888421
H          -11.94174222798439        1.19957049856262        1.64617460824872
H           -9.47614060591344        1.20413072911056        1.64854931438714
H           -8.88802411876876       -1.49352050574123        2.04832976685886
H           -7.64878466266332       -2.63202842915691        3.83035047055255
H           -5.18155638123119       -2.61793871902533        3.83775274184928
H           -3.94570809198909       -1.46719594760800        2.05836605291431
H           -3.35409614673190       -1.50818646817422       -1.62590396547795
H           -0.88458089150692       -1.48732887478849       -1.60985567347937
H            0.88446411715886       -1.48349169488320        1.61288104418347
H            3.35398674627053       -1.50394241429589        1.62943955751449
H            3.94542890450575       -1.47052316996672       -2.05541822408797
H            5.18108850381185       -2.62515010097544       -3.83237773434637
H            7.64832552074295       -2.64027856808853       -3.82453247707246
H            8.88772098508624       -1.49879652509798       -2.04454851924634
H            9.46450061037959       -1.47461045202064        1.67219065635445
H           11.93012427897403       -1.48368752104819        1.67604005889341
H           13.17258628204026       -0.14795105472713        0.01440611138540
H           11.94119792107293        1.19481362938970       -1.64954291574737
H            9.47559623277570        1.20070527775882       -1.65015524994487
H            8.88922165915998        1.22749385376703        2.06641110387938
H            7.65084548207536        2.37677098888606        3.84219638961121
H            5.18353486067835        2.37698507592975        3.84159022044622
H            3.94683744738340        1.22802046766683        2.06175118010231
H            3.38220481232157        1.25774570198398       -1.61831354365564
H           -0.05988229290018        2.12550989992558       -1.42367180722548
H            1.38552536285814        2.19056904373537       -2.44669732700492
H            0.19809916191105        0.89851865917904       -2.65354513846940
