  61
        -96.50290135
 C          8.1513900181        0.0096964520        1.4622055474
 C          7.2404520788       -0.9277506914        1.9261577520
 C          5.9628654777       -0.9726912362        1.4084219727
 C          5.5606296866       -0.0720834502        0.4110860501
 C          4.2060724908       -0.0988195767       -0.1003926079
 C          3.5076984701       -1.3239905955       -0.3673326752
 C          4.2120265032       -2.5266484760       -0.5078948405
 C          3.5719484331       -3.7088293319       -0.8330602580
 C          2.2077015463       -3.7090967965       -1.0705598727
 C          1.4915286350       -2.5283512365       -0.9719031536
 C          2.1013351122       -1.3278355339       -0.5941885836
 C          1.3385410825       -0.1066913172       -0.5362510521
 C         -0.0879425928       -0.0951284738       -0.3984687103
 C         -0.7570273916       -1.0794560164        0.3576245448
 C         -2.1168039260       -1.0493126606        0.5289393128
 C         -2.8897349760       -0.0339706095       -0.0523588991
 N         -4.2657286398       -0.0054628472        0.1153396789
 C         -4.9905150566       -1.1973648623        0.2360451349
 C         -6.0679720812       -1.2804192203        1.1181807608
 C         -6.7847044299       -2.4557918963        1.2293467113
 C         -6.4382234124       -3.5630700465        0.4717368404
 C         -5.3684480744       -3.4855116085       -0.4055131335
 C         -4.6489993276       -2.3129746015       -0.5287935163
 C         -4.9449319436        1.2190270686        0.1765454619
 C         -6.1950623027        1.3603738829       -0.4255681137
 C         -6.8651123034        2.5664258363       -0.3568113180
 C         -6.3006161824        3.6453438325        0.3048406686
 C         -5.0580377799        3.5093323586        0.9033253732
 C         -4.3822058893        2.3061014423        0.8454889272
 C         -2.2340435374        0.9598092978       -0.7926295775
 C         -0.8726942239        0.9351171473       -0.9515697907
 C          2.0761949481        1.1021271464       -0.5690093707
 N          1.5838131811        2.3275210300       -0.6749205762
 S          2.8093375660        3.4119982089       -0.5283753225
 N          4.0096587309        2.3286267724       -0.2851374609
 C          3.5061961409        1.1009920118       -0.3412609737
 C          6.4841540599        0.8838178702       -0.0292471910
 C          7.7634128860        0.9156221189        0.4864340664
 H          9.1526706877        0.0389069196        1.8655691006
 H          7.5285075592       -1.6227859295        2.7019440174
 H          5.2467197386       -1.6787104010        1.8031103304
 H          5.2848394054       -2.5204898690       -0.3944961793
 H          4.1429162259       -4.6204235734       -0.9273395466
 H          1.7030560004       -4.6203997840       -1.3550962176
 H          0.4437326449       -2.5259688483       -1.2297249464
 H         -0.1784324424       -1.8351240528        0.8669369216
 H         -2.6006212477       -1.7948391250        1.1429960149
 H         -6.3309563119       -0.4208948725        1.7171691807
 H         -7.6139033106       -2.5095851225        1.9186437496
 H         -6.9987945237       -4.4804810671        0.5638617181
 H         -5.0965124131       -4.3416056053       -1.0047824605
 H         -3.8245840591       -2.2471560306       -1.2234868899
 H         -6.6298591810        0.5222602797       -0.9505086611
 H         -7.8305597592        2.6660804493       -0.8299402404
 H         -6.8259359507        4.5866717604        0.3539456321
 H         -4.6140946982        4.3431088567        1.4262882021
 H         -3.4192015519        2.1961063647        1.3214873284
 H         -2.8167064678        1.7411741925       -1.2573671783
 H         -0.3839438768        1.7002921691       -1.5304620448
 H          6.1847605611        1.5862532900       -0.7892416840
 H          8.4668099625        1.6517548890        0.1255726246
