61
 energy: -96.588781149192 gnorm: 0.000038901338 xtb: 6.7.1 (edcfbbe)
C            8.44303389842173        0.09328777116970        0.58782398522478
C            7.67223225136356       -0.78193928714182        1.33545240918457
C            6.30709161385376       -0.85747530746906        1.12842821839402
C            5.69258904224126       -0.05525180353354        0.16823152144727
C            4.23741184640221       -0.10801254190480       -0.03607744658813
C            3.53594518973693       -1.29435974459230       -0.31112932444050
C            4.23504246525249       -2.50696482814401       -0.55778162577787
C            3.57995386355272       -3.66321672699518       -0.84920943884132
C            2.17350975908246       -3.67758718958648       -0.93792950025410
C            1.46312193671919       -2.53647022671035       -0.72666296188392
C            2.09977135801798       -1.31050323286206       -0.39393178802800
C            1.34390214995500       -0.14031131417559       -0.19815719132926
C           -0.12053992594699       -0.12170466795273       -0.15005449897844
C           -0.82432125146397       -0.98228428506776        0.69424683383582
C           -2.19965449720384       -0.93757069458804        0.76595015251756
C           -2.92294875440238       -0.03567166430099       -0.01813043849637
N           -4.31584131284281        0.00015749206504        0.04244815562422
C           -5.04022328952683       -1.18362181352238        0.24089908968441
C           -6.17110739231307       -1.19238101610622        1.05705955630021
C           -6.88345923539167       -2.36114554247480        1.24663055285652
C           -6.47874149851079       -3.53714450162952        0.63552688913482
C           -5.35517310682641       -3.53405891778991       -0.17550246344764
C           -4.64130127512313       -2.36848224467054       -0.37767821943501
C           -4.99847967208723        1.21796680752942       -0.08251449382019
C           -6.20833684968647        1.27954275334983       -0.77375139560997
C           -6.88585132816003        2.47863427505246       -0.88569054790279
C           -6.36729487838072        3.63310944913274       -0.32148039366190
C           -5.16282769153570        3.57813639781929        0.36155053334010
C           -4.48242184536167        2.38204443378403        0.48687913477776
C           -2.22083745976509        0.83128383829090       -0.85893159036905
C           -0.84463521430126        0.79463746501561       -0.91231956494349
C            2.04909658303382        1.05471450435474       -0.01532990202760
N            1.52967450920263        2.27983912849660        0.15596656327505
S            2.72697698896800        3.32120133480060        0.38163893559928
N            3.96389583460294        2.30646396054240        0.29011045560094
C            3.49188040450994        1.06987764998061        0.06613009545643
C            6.47348393795175        0.83289152128205       -0.56707731528947
C            7.83885995690130        0.90182440111102       -0.36109039775780
H            9.50977870503145        0.14925686647013        0.74846848251586
H            8.13539240348849       -1.40706692663224        2.08543647138205
H            5.70473444058650       -1.52749538696535        1.72589270902019
H            5.31392827648349       -2.48617382363634       -0.53340874442603
H            4.13403388592113       -4.57064581220104       -1.03894973380287
H            1.66680883523903       -4.59550960939224       -1.19703374278657
H            0.38966963563522       -2.53841761348809       -0.83815232881994
H           -0.28017900330521       -1.66797773971668        1.32793777444927
H           -2.72619497350351       -1.59732523801624        1.44006108666590
H           -6.48340296874141       -0.27871789756895        1.54157638798001
H           -7.75601212892445       -2.35486716815628        1.88365449003944
H           -7.03535403501995       -4.44939487114726        0.78954440451294
H           -5.03609785134112       -4.44459083904611       -0.66166124150439
H           -3.77166550417036       -2.36570619331666       -1.01872283705245
H           -6.61043454792422        0.38241750575075       -1.22172677291519
H           -7.82139571974323        2.51251312798285       -1.42498477331021
H           -6.89783678817118        4.56894575818787       -0.41343969538829
H           -4.75292701169008        4.47196112545371        0.80891304768611
H           -3.54848093058135        2.34067241977696        1.02841630537275
H           -2.76607079516036        1.53121919223183       -1.47483073160086
H           -0.31671676352748        1.46820723637924       -1.56988794987469
H            6.00257179072667        1.46263150999970       -1.30711896580383
H            8.43435099916771        1.58984537934321       -0.94362441606622
