61
 energy: -96.544825546180 gnorm: 0.000082034026 xtb: 6.7.1 (edcfbbe)
C            8.27865419246045        0.05945913815402        1.06931304819198
C            7.38789416064401       -0.80692233541271        1.68512026053572
C            6.07537154692266       -0.87203468876999        1.26313290385569
C            5.61910599591583       -0.06365504442787        0.21344248107943
C            4.22737016406578       -0.10666036846470       -0.20300416309505
C            3.51327787911442       -1.33643129839340       -0.38078736272685
C            4.20423372766933       -2.55338998698932       -0.47377917953711
C            3.54746925062232       -3.74491565012454       -0.71654772522650
C            2.17617845799168       -3.74515552647595       -0.91805530813574
C            1.47193085165622       -2.55551034580638       -0.86293060580807
C            2.09905705570735       -1.33986547092054       -0.56486266082427
C            1.34619242739180       -0.11251714727471       -0.54505589631318
C           -0.08320301506874       -0.08579076191518       -0.40509436806607
C           -0.75524537873638       -1.01390138105623        0.41672416987343
C           -2.11606199488923       -0.97594190089769        0.57683504515693
C           -2.89006828989903       -0.00800000622779       -0.08227104829900
N           -4.26563697379550        0.01840904971324        0.06381782420683
C           -4.98027419030584       -1.17038127853806        0.27482724969807
C           -6.05585033981767       -1.19606851729382        1.16287683266808
C           -6.76112400982062       -2.36726828356912        1.36291530298709
C           -6.40547253953373       -3.52450071502607        0.68780286448976
C           -5.33849864274202       -3.50263405769962       -0.19679962460364
C           -4.62998553118926       -2.33550329855420       -0.40826104702854
C           -4.96731831142579        1.23211574909055        0.00573571870879
C           -6.20357552169934        1.29637012561841       -0.63738571859063
C           -6.89994885858718        2.48880997638266       -0.68240399978178
C           -6.37609700243877        3.62904861922356       -0.09340372183852
C           -5.14725624545283        3.56937929481973        0.54522050870927
C           -4.44454724030504        2.38093582362710        0.60022694473126
C           -2.22932205393153        0.93563401057048       -0.88388031120143
C           -0.86653812023536        0.90268717704748       -1.03111922673504
C            2.08675222401442        1.09034757156372       -0.62158077882762
N            1.59170649337997        2.31538991054521       -0.73707666372088
S            2.82952767639849        3.40019768348345       -0.64736837851323
N            4.03760898350548        2.31424631929472       -0.42286654361252
C            3.52275964620356        1.08795650792058       -0.43992339817037
C            6.52465924989318        0.81920084223221       -0.38454468971651
C            7.83846398706384        0.87271525470433        0.03596865924490
H            9.30651538132325        0.10568371841379        1.39782704036971
H            7.71821465442950       -1.43084846539479        2.50338386194616
H            5.37803174130474       -1.52407202522280        1.76995128417379
H            5.28004943156411       -2.54997466151116       -0.38631607841394
H            4.10915672775740       -4.66532409772812       -0.77552297671972
H            1.65740293074364       -4.66572539846740       -1.14081938353408
H            0.41667714662816       -2.55842250437243       -1.08953972348021
H           -0.17747342502378       -1.73109611237538        0.98061607560143
H           -2.59970569854503       -1.67705349321578        1.24107140388661
H           -6.32674669077699       -0.29739816447113        1.69704810376672
H           -7.58874914704008       -2.37804547199740        2.05644146684389
H           -6.95745549266152       -4.43796641413817        0.84907738016406
H           -5.06107464190097       -4.39804283332569       -0.73304888815600
H           -3.80899916182603       -2.31372276142895       -1.10971477948985
H           -6.60675427221497        0.41030912846679       -1.10512174676118
H           -7.85419326733142        2.52937305598058       -1.18625461900923
H           -6.92254239587721        4.55913994266207       -0.13121673417443
H           -4.73550105207383        4.45207705042339        1.01157037907661
H           -3.49331132513147        2.33207753209132        1.10959290173351
H           -2.80800143577111        1.67976006031450       -1.41077512889015
H           -0.37755312744023        1.62458909912171       -1.66445584156283
H            6.18553167885410        1.44957222278830       -1.19160862654431
H            8.52616918888246        1.55259557055038       -0.44613886573701
