61
 energy: -96.588777982408 gnorm: 0.000036125758 xtb: 6.7.1 (edcfbbe)
C            8.75158596429496        0.76675851809473        0.54965939721760
C            8.02856142204978       -0.14852831845443        1.29705649401282
C            6.66437795723445       -0.27610754310473        1.11022586100087
C            6.00286334581313        0.51290050151320        0.17049654213816
C            4.54864311467989        0.40035196104237       -0.01688773562639
C            3.89730122751641       -0.81132862073134       -0.30461598910138
C            4.64620358595670       -1.98915026021645       -0.57293486604679
C            4.03966213867966       -3.16817698525329       -0.87773470560075
C            2.63465674357995       -3.24170371128004       -0.95975635806284
C            1.87727748188722       -2.13535752892813       -0.72818772736914
C            2.46266332802599       -0.88821885136619       -0.38012681067545
C            1.65840031119271        0.24528690071017       -0.16358955776832
C            0.19416141596551        0.20113600643755       -0.11814801404163
C           -0.47535793197117       -0.69667390048129        0.71498655430137
C           -1.85182435194545       -0.71277732410668        0.77930527840965
C           -2.60958642494737        0.16361858720267       -0.00099542889400
N           -4.00326372797058        0.13798001023136        0.05178676557696
C           -4.67636020185321       -1.07918853791657        0.22655205118867
C           -5.81302452767536       -1.14967602821852        1.03168599088366
C           -6.47543216985729       -2.35103963136171        1.19689218586495
C           -6.01441107309449       -3.49885959753379        0.57224633706312
C           -4.88442745419626       -3.43464296982885       -0.22724045531285
C           -4.22025616979516       -2.23618905094337       -0.40515303850475
C           -4.73659877569188        1.32686207738599       -0.06285825651808
C           -5.94462171245203        1.34593779425156       -0.75977553134772
C           -6.67077852785861        2.51714177935295       -0.86190623638854
C           -6.20357575840990        3.68562208513271       -0.28185196929563
C           -5.00117967802134        3.67304486844602        0.40690708106265
C           -4.27236052965399        2.50483955339301        0.52242966158271
C           -1.94194267734395        1.06805831200286       -0.83015098925507
C           -0.56517753043694        1.09204570362926       -0.87610123857930
C            2.31220340081806        1.46624303180582        0.03706866193358
N            1.74117139617831        2.66481441353397        0.23106938119053
S            2.89370972240841        3.75351100838917        0.46599814623443
N            4.17295730805470        2.79526382324277        0.35024245426423
C            3.75350468220765        1.54286610763167        0.10981290058122
C            6.73547312341947        1.44219832590648       -0.56362465450032
C            8.10015207262019        1.56331335135033       -0.37785404088425
H            9.81780490349852        0.86295801266526        0.69385285777996
H            8.52840760764289       -0.76472750893447        2.03068358208606
H            6.09910190393182       -0.97791508995959        1.70748212288297
H            5.72331129490918       -1.92253097543119       -0.55407034946551
H            4.63101503658364       -4.04820708023933       -1.08338015551171
H            2.16635540815798       -4.17663131178096       -1.23005726771988
H            0.80431217138906       -2.18175536476715       -0.83430736844775
H            0.09503813326835       -1.36418047823508        1.34501621432131
H           -2.35281857476278       -1.40105613178554        1.44430847866893
H           -6.16907027167798       -0.25805184907241        1.52692928694793
H           -7.35320069833985       -2.39233062463134        1.82542516276728
H           -6.53236496213203       -4.43658049297621        0.70689313323368
H           -4.52162399479315       -4.32296015689103       -0.72368751800323
H           -3.34569027714756       -2.18597720157664       -1.03749939630423
H           -6.30681872443149        0.43812126022488       -1.22016067671510
H           -7.60406625768167        2.51862229392978       -1.40613847985709
H           -6.77211199815347        4.59961254510752       -0.36614937689890
H           -4.63095364801751        4.57797167579547        0.86646378217566
H           -3.34022932738427        2.49580907985914        1.06852126979296
H           -2.51415517484849        1.74895032915162       -1.44291802937160
H           -0.06366126010205        1.79362638443573       -1.52503019091549
H            6.22799282835658        2.06243381415249       -1.28732557232410
H            8.65807836233614        2.28262301000215       -0.95977664985462
