92
 energy: -158.221005500101 gnorm: 0.000056783165 xtb: 6.7.1 (edcfbbe)
C           -4.35719907814737       -6.18761805342072        3.22702421097864
C           -3.20386342009922       -5.42881615322427        3.28833839099732
C           -2.87987093166653       -4.56000228933020        2.25936017775046
C           -3.70161333604948       -4.44393652533256        1.14325345693200
C           -4.88608134894367       -5.19496762511236        1.10567309911137
C           -5.20297842274194       -6.06178575546650        2.13597290753916
O           -5.78037205950238       -5.09960820489304        0.07189811991353
C           -5.48682795568398       -4.22854217553247       -0.94401004272935
C           -6.40569012903720       -4.13249651507154       -1.97370391134418
C           -6.16461977680063       -3.29220940885907       -3.04929597474128
C           -4.99196870756847       -2.56282626291120       -3.09507011728891
C           -4.06796991059447       -2.65363676812085       -2.06720045630739
C           -4.30599034579877       -3.47021783335802       -0.96650986473788
N           -3.40393523917498       -3.58397895667954        0.08908509575578
C           -2.19118879821339       -2.85523505547388        0.08322403239072
C           -0.96718370978360       -3.53818540121404        0.02587901590324
C            0.19910800770601       -2.82346729538829        0.01059375371682
C            0.19106951372837       -1.41835004483508        0.03229308109239
C           -1.03993704878612       -0.72115200347474        0.08528424669333
C           -2.21841709966162       -1.47722974720077        0.12291089794081
C           -1.03809436312248        0.72109577404618        0.08614911483686
C           -2.21454175259963        1.48028209475906        0.12651062926006
C           -2.18359751037410        2.85822695410365        0.08797959002583
N           -3.39391204145556        3.59097334333100        0.09723583914144
C           -3.68453298143424        4.45270613644504        1.15193522171093
C           -2.86179143045725        4.56107764245033        2.26808629573423
C           -3.17841379595101        5.43191189734737        3.29763720283924
C           -4.32526614733224        6.20053273089822        3.23677837565009
C           -5.17220135107753        6.08244129145000        2.14575879391307
C           -4.86274105563792        5.21349763116319        1.11497997574586
O           -5.75784144414658        5.12605936791030        0.08122485184968
C           -5.47254912290647        4.25161502835197       -0.93414521544985
C           -6.39330993559530        4.16230148872412       -1.96274444879025
C           -6.16042753599209        3.31910567209267       -3.03785759617718
C           -4.99395876083667        2.57992057401246       -3.08421962458901
C           -4.06804542361959        2.66402915430029       -2.05749447029418
C           -4.29795899378351        3.48362490589555       -0.95733010738295
C           -0.95781461548993        3.53788720474343        0.02893048495501
C            0.20652356849800        2.82011147430750        0.01137366331219
C            0.19469264060485        1.41501279272486        0.03239184159628
C            1.43489937547029        0.70757302192840       -0.00681172900058
N            2.58893315797267        1.36423530815923       -0.04483924104385
C            3.75393013809636        0.71566583370699       -0.07240747118640
C            4.97460820025204        1.38291794331010       -0.11902940381848
C            6.18125408048426        0.69442138514222       -0.15341721780386
C            7.42746775170272        1.45087204835649       -0.27444083695259
C            8.41258628114195        1.13912513267740       -1.21699312396649
N            9.53477758565378        1.82384553038134       -1.32396686944028
C            9.69383539391376        2.84592839580932       -0.50161370732765
N            8.82500082647990        3.25971811405879        0.40289369261061
C            7.70528114176647        2.56934042076607        0.51522438649005
C            6.18041062425640       -0.71234924908287       -0.12491635038110
C            7.42958041068580       -1.47155970569027       -0.07100812601251
C            8.46539721392479       -1.16123809981910        0.81606688260275
N            9.59024018571287       -1.84837903397823        0.86242775500198
C            9.70186235018602       -2.87168925517612        0.03380286526987
N            8.78385864861942       -3.28449092495915       -0.82121556185545
C            7.66126951106923       -2.59164148542722       -0.87319731623680
C            4.97202190903158       -1.39808134698050       -0.09384283003099
C            3.75226688542215       -0.72800508908429       -0.06963349443307
N            2.58560043611538       -1.37371240750798       -0.04308334519237
C            1.43315983509748       -0.71415208129857       -0.00627304781537
H           -4.60944384252683       -6.86804210774702        4.02463015694166
H           -2.54671057060983       -5.50447748586611        4.14067718209283
H           -1.98451368261405       -3.96223451197266        2.32413603179865
H           -6.11910194272721       -6.62582820349253        2.06564847143274
H           -7.30157137074184       -4.72944477893574       -1.91520137705198
H           -6.88727046935573       -3.22106136933972       -3.84645790642788
H           -4.78365199798697       -1.91827011192875       -3.93488314636687
H           -3.14876947585272       -2.09251925428784       -2.12419535963021
H           -0.96118994617471       -4.61699429268517       -0.01191379933233
H            1.15629658708467       -3.31933762560315       -0.03401135250309
H           -3.18039539961536       -0.99242423273573        0.17916590960456
H           -3.17766340397279        0.99798674945362        0.18465072964569
H           -1.97146713979899        3.95576698518794        2.33228687726321
H           -2.52067473491006        5.50145223576233        4.15004036446127
H           -4.57163616538614        6.88269448061239        4.03473631945177
H           -6.08346349633246        6.65434644733837        2.07577519673927
H           -7.28407210920949        4.76682353616382       -1.90382157160278
H           -6.88451195197718        3.25329336141425       -3.83417555673269
H           -4.79201016489537        1.93278952973417       -3.92360595347576
H           -3.15357418359186        2.09531049630040       -2.11512547873376
H           -0.94902487441356        4.61671141708302       -0.00796513134222
H            1.16496080017508        3.31344449829364       -0.03446643627966
H            4.96402834203678        2.46146562586016       -0.15565131661871
H            8.28213595481125        0.32468063170324       -1.91939188838547
H           10.61853859988058        3.40123728696500       -0.58395401444797
H            7.00791121635311        2.90795511517756        1.27178123725874
H            8.37537184777301       -0.34577077035157        1.52360827542507
H           10.62832540333061       -3.42920922878493        0.06634093395773
H            6.92280179583737       -2.92952024023178       -1.59004097660475
H            4.96111908585752       -2.47659380726238       -0.05573351854452
