92
 energy: -158.259257330695 gnorm: 0.000060842853 xtb: 6.7.1 (edcfbbe)
C           -6.33210086865228       -2.86504781648297        2.83634482218181
C           -5.13643784287669       -2.17848148701277        2.89168965293374
C           -4.15325649616453       -2.40293251893254        1.94052982317486
C           -4.35352368460280       -3.30863872768954        0.90538960089543
C           -5.55355868877273       -4.03250876536045        0.88555036793147
C           -6.53211183687343       -3.80340004475779        1.83556292397837
O           -5.81331522803166       -5.00615611009928       -0.04489486051736
C           -4.86339420734221       -5.23112582933359       -1.00859759351773
C           -5.15372570840563       -6.19152290346477       -1.96013100969386
C           -4.26214468048967       -6.44835369048734       -2.99049871744526
C           -3.09276519747138       -5.72000134013571       -3.07377034146837
C           -2.79613104207836       -4.75789281630218       -2.12066788072214
C           -3.65854334313901       -4.51788877339856       -1.05796876357396
N           -3.38797425463780       -3.55743938890049       -0.07728428613744
C           -2.17148543864824       -2.85171489869776       -0.08350285819023
C           -0.95512744920929       -3.53755321596297       -0.00079072010600
C            0.21992740912512       -2.82847553583660        0.00679166094853
C            0.22020144343778       -1.43022963369334       -0.04466149341631
C           -0.99837155125863       -0.72626773246991       -0.11870001946162
C           -2.17989328621949       -1.46765865787933       -0.15575627615072
C           -0.99665642787767        0.72983347452267       -0.11911776602738
C           -2.17609701187344        1.47381186619515       -0.16681098681518
C           -2.16571965458872        2.85775968494099       -0.09231686638164
N           -3.38092213081569        3.56549008332553       -0.09818595750030
C           -4.35933145550444        3.31344996087169        0.87100510763864
C           -4.17333104236775        2.40324614875199        1.90490809848789
C           -5.16949642791011        2.17446552030549        2.84138597521617
C           -6.36419542844219        2.86154227436598        2.77282930728215
C           -6.55009068172420        3.80490194744765        1.77406523821804
C           -5.55860966430806        4.03808730907017        0.83852482338303
O           -5.80530172558878        5.01642988515405       -0.09051429485999
C           -4.84247603072696        5.24542631412635       -1.04031139108148
C           -5.11930452238777        6.21125200860082       -1.99040228603472
C           -4.21440193187385        6.47207226751402       -3.00804754976412
C           -3.04534154844955        5.74204692387302       -3.08049743570425
C           -2.76214246073925        4.77469098873443       -2.12862239294418
C           -3.63795011687662        4.53088329965162       -1.07778659074609
C           -0.94873285775020        3.54075672240541        0.00426210886216
C            0.22484532023236        2.82927685252256        0.01894390797757
C            0.22296855876762        1.43118696108852       -0.03674796676306
C            1.47529249122019        0.71463647583855       -0.00049001842062
N            2.60366596364636        1.39870751666510        0.03759429165806
C            3.75318013986629        0.70966301720464        0.07040707895257
C            4.98250432728817        1.39521556638514        0.10186300094998
C            6.16932057439613        0.70618772506939        0.12988751201806
C            7.43567828123289        1.44362588076405        0.09469005560646
C            8.45522174175030        1.15000100269735       -0.81483946980265
N            9.59490785626473        1.81357641155760       -0.83875112686518
C            9.73638186745230        2.79489567537207        0.03422438709005
N            8.83463668600958        3.18807336443019        0.91499240560050
C            7.69755512800041        2.51848260071133        0.94649940548270
C            6.16689331859676       -0.71947725544423        0.14982490553998
C            7.42641789809516       -1.46075641329577        0.26289216470182
C            8.38889346807105       -1.17044581299467        1.23358076437728
N            9.52247763268895       -1.83817969986901        1.32795192209020
C            9.71398153205853       -2.82042072160806        0.46561187498293
N            8.86689957096824       -3.21074301540772       -0.46904021288762
C            7.73640781801107       -2.53700864908291       -0.57083467858665
C            4.97880283115458       -1.40534872168160        0.10503965764506
C            3.75170323341276       -0.71654126421366        0.06253029772244
N            2.60083171276524       -1.40286214766663        0.02308642252101
C            1.47389496038135       -0.71617300968195       -0.00755739500902
H           -7.10291598452220       -2.68940670471776        3.56972830812634
H           -4.95264113560287       -1.46379894665959        3.67883620303093
H           -3.21612331642691       -1.87442861806992        2.01599906175589
H           -7.44268109387943       -4.37776117681257        1.77657426182060
H           -6.08803236071108       -6.72346063183001       -1.87871903078638
H           -4.49430113634028       -7.20272827614595       -3.72533508666090
H           -2.40000502897997       -5.88946391339686       -3.88354775490527
H           -1.88783415096807       -4.18331663737865       -2.21162477535939
H           -0.95300428452880       -4.61478999451424        0.06901509723105
H            1.17262106226414       -3.32941452726364        0.07287657077290
H           -3.13638642875039       -0.97708238733413       -0.23943354891910
H           -3.13251110342592        0.98538133005160       -0.26287743470160
H           -3.23738471465310        1.87428113930931        1.99102168147869
H           -4.99686054523969        1.45560625786117        3.62721641930436
H           -7.14514399493956        2.68237521523472        3.49453203737670
H           -7.45955994912487        4.37992550733085        1.70539291289588
H           -6.05384601881677        6.74409870780505       -1.91811856388771
H           -4.43606456586942        7.23067980978188       -3.74176958327568
H           -2.34229396496720        5.91432642355982       -3.88076620042160
H           -1.85379591031644        4.19896815734985       -2.21143684451688
H           -0.94484308882534        4.61777107389987        0.07735484795163
H            1.17797916469968        3.32830560779002        0.09271997193417
H            4.96588468015359        2.47422019462326        0.07653481748477
H            8.34167366167356        0.37013327242261       -1.55818939548649
H           10.67535448762813        3.33161015357818        0.01970187256415
H            6.97229986467153        2.83755771219696        1.68499617963015
H            8.23248940083912       -0.38995259355008        1.96844588676357
H           10.64826597687675       -3.36059170080964        0.53818487416412
H            7.05682101250979       -2.85383135644891       -1.35247504274274
H            4.95771807848014       -2.48429395537201        0.12957416258273
