70
 energy: -97.130129381161 gnorm: 0.000024141575 xtb: 6.7.1 (edcfbbe)
C            6.18957439108092       -2.45397964328455       -0.26115063406544
C            5.86605789025141       -1.19480458221043        0.54879309026850
C            6.58936754193903       -0.00687193754308       -0.10277720698642
C            6.38704126896574       -1.39988832108589        1.97916113599749
C            4.37488209775853       -0.89683151530632        0.59862194529124
C            3.42407988435868       -1.67285559566365       -0.05161721888449
C            2.07423277976561       -1.37195163241384        0.00843483222148
C            1.63963394730280       -0.27825067933821        0.74030585292930
O            0.32442847925065        0.12314213755794        0.80470663192017
C           -0.68375851096037       -0.78026786555908        0.59384537924747
C           -0.72172311408933       -2.03188772579221        1.19041113707778
C           -1.81168694996186       -2.86441550282666        1.00058550586584
C           -2.89491990088567       -2.48474977011370        0.21468236774219
C           -4.10778535755138       -3.37143821982561       -0.02077965571213
C           -4.01846069182808       -4.70344938316770        0.72979305989543
C           -4.21995067086806       -3.66825266152648       -1.52342774854714
C           -5.36514044793308       -2.63110792827225        0.45809537508606
C           -2.83849245926754       -1.22700899916390       -0.37726511459363
C           -1.75791063911475       -0.38065832621025       -0.19910289573441
P           -1.79344058917558        1.22316188894085       -1.06111641837238
O           -2.71285094832977        1.19285402722270       -2.21766650951296
C           -2.26481029698807        2.47332425554196        0.17338085621039
C           -1.60239947792505        2.62246902904848        1.38634472079587
C           -2.02482760820119        3.58789100553392        2.28216754474201
C           -3.10616924384050        4.40023756628458        1.97513193860239
C           -3.77076385969914        4.24774160782457        0.76906326794273
C           -3.35036581261439        3.28380001497533       -0.13064393167402
C           -0.07169267978968        1.54437611674090       -1.56902134788634
C            0.50771531224592        0.59009790660051       -2.39505532486083
C            1.80153250172826        0.76074919921793       -2.85097833777353
C            2.51596380673751        1.89066134285666       -2.48554717197900
C            1.93354440686269        2.84894250410217       -1.67283211424641
C            0.63816458757502        2.68017890098375       -1.21394442138213
C            2.57446488346427        0.51618248131088        1.39339469377548
C            3.91625485891477        0.20647235501292        1.31625437964923
H            5.71254737649959       -3.33097405502262        0.17052660809640
H            7.26499589584226       -2.62028908212764       -0.25636277559506
H            5.87203943138452       -2.34700131396631       -1.29579349754932
H            6.43793651947131        0.90793239428133        0.46326827523479
H            7.65824445726604       -0.20321988611517       -0.15564558756516
H            6.21656892954852        0.15119482338851       -1.11271601617812
H            7.44816373249650       -1.63920432046938        1.95935529002298
H            5.85712295387256       -2.22051533596971        2.45885416197812
H            6.25160177660617       -0.50725702790531        2.58326064458526
H            3.71771386703905       -2.53275128917312       -0.63067266337798
H            1.36041232551416       -1.98470955808557       -0.52302741772149
H            0.10442074795226       -2.35030971980533        1.81023094639543
H           -1.79800776724861       -3.82594184240679        1.48640002266345
H           -3.95380254120095       -4.54347139475911        1.80353929654259
H           -3.15900092493364       -5.28252253354773        0.40023631054584
H           -4.91329325153219       -5.28915155347993        0.53035121097955
H           -5.08510262764061       -4.29887227355759       -1.71599634873638
H           -4.32915193873973       -2.75321772305260       -2.09941791020957
H           -3.32928424583710       -4.18663368389145       -1.87337952514047
H           -6.24335908676389       -3.25695990972198        0.31560964951626
H           -5.28043130666247       -2.38874124260536        1.51570169016791
H           -5.51338394894375       -1.70618717637543       -0.09250085806002
H           -3.63267586421932       -0.86976359849467       -1.01718743932704
H           -0.76219076015623        1.98594128310489        1.61571660076180
H           -1.51003662332377        3.70778506588878        3.22443350323973
H           -3.43153051325769        5.15263965521521        2.67858285786447
H           -4.61476407215384        4.87797711278026        0.52946186102834
H           -3.85171518783753        3.14291661703979       -1.07829982368958
H           -0.07264335458430       -0.28167511047907       -2.67245308975243
H            2.25320847407529        0.01441587899905       -3.48816416964684
H            3.52758219121741        2.02588116993849       -2.83822489604555
H            2.49002021407624        3.73181826912610       -1.39380066488981
H            0.17904422731372        3.42399647899538       -0.57797871313109
H            2.23564317754494        1.37635580896328        1.95027223949555
H            4.61538457267468        0.84550916066683        1.83309610376042
