  70
        -97.09173059
 C          6.0894341494       -2.2882092650       -0.4782593945
 C          5.7805066421       -1.0124591303        0.3099636872
 C          6.3547416022        0.1807237720       -0.4668060240
 C          6.4650090419       -1.1204020058        1.6802390088
 C          4.2890301497       -0.7960405922        0.5125481176
 C          3.3217511053       -1.6501943154        0.0021988396
 C          1.9706808279       -1.4168745226        0.1920621214
 C          1.5533630477       -0.3104595480        0.9144463836
 O          0.2426143068        0.0419969545        1.0949593777
 C         -0.7605454692       -0.8441069604        0.7949467975
 C         -0.8561815797       -2.0944986234        1.3862905414
 C         -1.9369208007       -2.9163281963        1.1130146339
 C         -2.9491506989       -2.5228981141        0.2450089481
 C         -4.1504805719       -3.3925889729       -0.0865488273
 C         -4.1413361891       -4.7241325171        0.6685668277
 C         -4.1454083411       -3.6875970564       -1.5929276497
 C         -5.4305749255       -2.6330508904        0.2877666158
 C         -2.8317060020       -1.2689512642       -0.3454694640
 C         -1.7612713422       -0.4336346255       -0.0822575279
 P         -1.6996838194        1.1530594826       -0.9809673016
 O         -2.5441407380        1.1239495931       -2.1854142629
 C         -2.1864653951        2.4502512809        0.1991103633
 C         -1.6322539738        2.5730880584        1.4673483466
 C         -2.0570532954        3.5897178877        2.3031777653
 C         -3.0319122890        4.4806094506        1.8806912536
 C         -3.5877343344        4.3554088167        0.6182452067
 C         -3.1654727170        3.3397588699       -0.2210770106
 C          0.0692605701        1.3944757873       -1.3608108490
 C          0.6563385093        0.4229632311       -2.1601422800
 C          1.9929383540        0.5174198639       -2.4999562422
 C          2.7444326650        1.5868800328       -2.0417640262
 C          2.1560873899        2.5632618981       -1.2557526258
 C          0.8177225683        2.4718052082       -0.9151243555
 C          2.5069408091        0.5555092556        1.4385609712
 C          3.8474112102        0.3110091584        1.2344344595
 H          5.7172639131       -3.1685323534        0.0407759076
 H          7.1667722106       -2.3937637106       -0.5889692302
 H          5.6529295150       -2.2494806435       -1.4736029882
 H          6.1903676530        1.1145227211        0.0636323578
 H          7.4254467086        0.0539454500       -0.6134693969
 H          5.8789694050        0.2543206670       -1.4426129836
 H          7.5288166928       -1.3105563394        1.5543383606
 H          6.0334561478       -1.9394210495        2.2519296532
 H          6.3495151101       -0.2059848654        2.2549881047
 H          3.6018636160       -2.5204330084       -0.5681499479
 H          1.2437419951       -2.0902580579       -0.2376723094
 H         -0.0824289096       -2.4210767625        2.0667567847
 H         -1.9717259088       -3.8783485376        1.5972709022
 H         -4.1602914606       -4.5637491211        1.7441050592
 H         -3.2662098366       -5.3159840408        0.4102151089
 H         -5.0250368713       -5.2987367155        0.3990225808
 H         -4.9997573545       -4.3076107778       -1.8553774952
 H         -4.1962233125       -2.7706777877       -2.1725323577
 H         -3.2361950882       -4.2172424767       -1.8703010996
 H         -6.3042129278       -3.2447411691        0.0730116310
 H         -5.4294644844       -2.3925127917        1.3488283905
 H         -5.5162624202       -1.7068760770       -0.2725017482
 H         -3.5661407519       -0.9084059811       -1.0496248722
 H         -0.8728416304        1.8780217043        1.7883967109
 H         -1.6269810312        3.6888057367        3.2895265775
 H         -3.3587562294        5.2727020695        2.5383677076
 H         -4.3481459165        5.0483999588        0.2887527882
 H         -3.5837836678        3.2174755664       -1.2096218109
 H          0.0485862961       -0.4019184862       -2.5092129857
 H          2.4499464092       -0.2421587508       -3.1172556608
 H          3.7900203858        1.6627663617       -2.3007953683
 H          2.7434377368        3.3995076248       -0.9053223449
 H          0.3557341989        3.2299696608       -0.2990219404
 H          2.1793346583        1.4216199444        1.9925263613
 H          4.5604727920        1.0056496346        1.6508423498
