70
 energy: -97.006103099100 gnorm: 0.000140727737 xtb: 6.7.1 (edcfbbe)
C            6.27253806811188       -2.77292791970877        0.63736950280310
C            5.92281762989771       -1.31750936879812        0.96096978381822
C            6.76559898159973       -0.40441073707145        0.05532120687187
C            6.28081414736519       -1.05377066700764        2.43373081597923
C            4.45604103097877       -1.00579743424754        0.75073859542676
C            3.53124244597476       -1.94882012054689        0.28481762557370
C            2.20103208782911       -1.64488408358056        0.12312303608143
C            1.72944202112033       -0.35160892836817        0.41732044952417
O            0.45503927191179        0.05171440844450        0.25303485698612
C           -0.60337382384011       -0.77846549201095        0.27041096184819
C           -0.67734077607492       -1.98851854298044        0.96304737138219
C           -1.79173243618053       -2.78408721255519        0.89068884626171
C           -2.92201730171216       -2.40266356323343        0.07669647658002
C           -4.14766368462519       -3.27541291587034       -0.06424404029966
C           -4.03577499513621       -4.59879469155819        0.69803877169018
C           -4.35786626736199       -3.59604285248745       -1.55541047369699
C           -5.37151851341296       -2.50925387496969        0.46728619178209
C           -2.86735588167047       -1.17701468529974       -0.55794442540388
C           -1.76198505355122       -0.33207844141591       -0.50032288462649
P           -1.91131512104598        1.31312635725281       -1.18297607479120
O           -3.01763824343493        1.41635304635583       -2.16089864915030
C           -2.12549678748887        2.42240529644096        0.23262286059022
C           -1.12645040033477        2.63907067260719        1.18648148397716
C           -1.39561480142511        3.39622675743182        2.30668783395396
C           -2.66366224157178        3.92838053485398        2.50752328769637
C           -3.66710449455651        3.69605245259457        1.57239546701222
C           -3.40495696865327        2.93997447895417        0.45039648396238
C           -0.30411075043562        1.73092630224446       -1.95267353675357
C            0.33491232724725        0.75783912397749       -2.70790371423957
C            1.51483263816759        1.05463037153321       -3.36525484790209
C            2.05087407488966        2.32994324042350       -3.27712119821699
C            1.40039799991940        3.30915175499845       -2.54379578500657
C            0.21949246727631        3.01200499680487       -1.88453997592614
C            2.65761021909738        0.62067324810723        0.84359112928873
C            3.97567732101481        0.29026060871260        1.01084081883377
H            5.71115135963363       -3.46038810336852        1.26575118980425
H            7.33170603287847       -2.93913295233280        0.82213193397203
H            6.07677281985167       -3.00054619334760       -0.40788187670537
H            6.61376581670889        0.64417777438156        0.29443220855927
H            7.82159907180337       -0.63312285825769        0.18004095685330
H            6.49898487453290       -0.55925135431272       -0.98810461020504
H            7.32961749010568       -1.28483270668376        2.60557091796445
H            5.67723941393899       -1.68115232009802        3.08640696209043
H            6.11206712093434       -0.01583604024398        2.70536918569885
H            3.85575621093981       -2.94254388486218        0.02460215429497
H            1.52085756940336       -2.37458937617791       -0.29007917606388
H            0.14324258713127       -2.26894778227977        1.60949918955026
H           -1.83320057106868       -3.68046474294722        1.48188360039827
H           -3.94134204153928       -4.42800571214700        1.76780037718339
H           -3.18503415428610       -5.17987658628734        0.35030821612940
H           -4.93593514873126       -5.18660025185122        0.53139896945070
H           -5.24466751765865       -4.21369633900651       -1.67849916903159
H           -4.48707374707977       -2.68955699335902       -2.14004343588482
H           -3.49953231166651       -4.13721538263233       -1.94818828464543
H           -6.26328777923050       -3.12485575557784        0.37320677169455
H           -5.23064064385242       -2.25731308186214        1.51648779440029
H           -5.53104703309944       -1.58735740989046       -0.08525009877306
H           -3.69184051184342       -0.82470535739098       -1.16271459886721
H           -0.14265323934462        2.22620512806030        1.02246616349428
H           -0.61596956340008        3.57615080907317        3.03393259942314
H           -2.87110507840834        4.51673530884548        3.38899652500644
H           -4.65381031800271        4.11074294625057        1.72427694023625
H           -4.16786860267237        2.75481398983058       -0.29379904523776
H           -0.10663882005567       -0.23007982231982       -2.76875692962739
H            2.01565675904263        0.29405653385243       -3.94692217174467
H            2.97322119303826        2.56313765046941       -3.78864417245472
H            1.81243824167734        4.30636634711317       -2.48547942880482
H           -0.30213595703490        3.76836457432804       -1.31218731906373
H            2.30174170407451        1.61736524428560        1.05328843908094
H            4.65452494293668        1.05379525877355        1.35615282741171
