  56
        -74.16046120
 C         -8.5037690092        4.0592663835        0.1962038577
 C         -7.8558117061        2.7535776402        0.6401183672
 C         -7.7664035678        1.7455002937       -0.5030890912
 C         -7.1146882771        0.4368816357       -0.0641078432
 C         -7.0305779068       -0.5700660641       -1.2076627927
 C         -6.3814993197       -1.8919872442       -0.7718284858
 C         -4.9519429723       -1.6908898414       -0.3706765972
 C         -4.5744718502       -1.6318438352        0.9693381963
 C         -3.2659979246       -1.4052334498        1.3261562755
 C         -2.2601440792       -1.2237367583        0.3566870288
 C         -0.9218381830       -0.9844586056        0.7854069319
 C          0.1686002509       -0.7794685647       -0.0228150431
 C          1.4949371465       -0.5317451609        0.3941006157
 C          1.9052436518       -0.4680750307        1.7409252817
 C          3.2046003923       -0.2137348493        2.0815677993
 C          4.2084304036        0.0008997721        1.0999850673
 C          5.5236015206        0.2674471125        1.4297457389
 C          6.5202588634        0.4832434552        0.4398047152
 C          7.8455996494        0.7561610631        0.7704972263
 C          8.8009276279        0.9644472431       -0.2185247879
 C          8.4418304308        0.9014510887       -1.5564693352
 C          7.1333254784        0.6316576623       -1.9153978277
 C          6.1451282385        0.4176176656       -0.9369418250
 C          4.8122915829        0.1452684400       -1.2702507648
 C          3.8204334429       -0.0644870235       -0.2808675803
 C          2.5006893135       -0.3254351059       -0.6025177635
 C         -2.6534080243       -1.2908036124       -0.9937844212
 C         -3.9642226941       -1.5177316695       -1.3398781277
 H         -8.5582821849        4.7618230988        1.0246529923
 H         -7.9277975944        4.5175013158       -0.6049943188
 H         -9.5129811490        3.8796456339       -0.1686054644
 H         -8.4364440466        2.3203724806        1.4579759083
 H         -6.8516202627        2.9566155431        1.0194356069
 H         -8.7709395159        1.5412975743       -0.8824332701
 H         -7.1868575478        2.1801153451       -1.3212135427
 H         -7.6925329968        0.0043572062        0.7566158881
 H         -6.1090336231        0.6421524622        0.3102334862
 H         -8.0356668932       -0.7758822827       -1.5834555761
 H         -6.4495886387       -0.1383396281       -2.0256545667
 H         -6.9476246637       -2.3103777507        0.0627966752
 H         -6.4306114394       -2.5965423491       -1.6059679026
 H         -5.3238090175       -1.7661935195        1.7369179162
 H         -2.9959389422       -1.3620170467        2.3721332691
 H         -0.7824180846       -0.9637087630        1.8578945721
 H          0.0214377322       -0.8007915739       -1.0946947844
 H          1.1788814296       -0.6225218062        2.5242645967
 H          3.4929887518       -0.1692563082        3.1225676980
 H          5.8134595575        0.3169407374        2.4703791844
 H          8.1293956448        0.8055269267        1.8124382781
 H          9.8233858221        1.1744821779        0.0585240694
 H          9.1865173546        1.0626079961       -2.3222997266
 H          6.8537662059        0.5825349581       -2.9580299147
 H          4.5275821743        0.0951602890       -2.3115911337
 H          2.2116666995       -0.3730058392       -1.6433301009
 H         -1.9188673076       -1.1644302491       -1.7738907573
 H         -4.2385198258       -1.5688296139       -2.3846258404
