  68
       -109.55799422
 O          4.5710028482        2.2829350016       -1.1236688559
 C          5.0330916839        1.3056791543       -0.5706624994
 C          6.4265248368        1.3081940214       -0.0560494132
 C          7.0314767868        2.5448129973        0.1819340708
 C          8.3149840615        2.6141038415        0.6897757285
 C          9.0198887092        1.4521000879        0.9674950273
 C          8.4368122978        0.2188935514        0.7208944844
 C          7.1532079230        0.1557223229        0.2176854659
 S          6.4627159506       -1.4429697694       -0.1943926152
 O          6.7646101777       -1.7132033721       -1.5747957256
 O          6.8780097461       -2.4142616790        0.7807462287
 C          4.7058591716       -1.1568491842       -0.0531944651
 C          3.8687507064       -2.2217385018        0.2140278267
 C          2.4985244004       -2.0335817725        0.2475299637
 C          1.9512575755       -0.7750938962       -0.0091637157
 C          0.4967225554       -0.5682742162        0.0084767572
 C         -0.1156025045        0.2445003578       -0.9438265472
 C         -1.4829577139        0.4338881172       -0.9253280601
 C         -2.2842620754       -0.1680825972        0.0414007690
 Si        -4.1632035218        0.0868130091        0.0279546443
 C         -4.9438269953       -1.0631830091       -1.2590329413
 C         -6.2993630541       -1.3743581668       -1.1911014339
 C         -6.8910554944       -2.1979167663       -2.1312582218
 C         -6.1325542288       -2.7289896399       -3.1613368457
 C         -4.7823693269       -2.4330930797       -3.2419803371
 C         -4.1967796158       -1.6078452792       -2.2986339104
 C         -4.8761707146       -0.3363460210        1.7315150497
 C         -5.1873184214        0.6550986628        2.6565164902
 C         -5.6963279348        0.3339575833        3.9021978614
 C         -5.9031359100       -0.9913488134        4.2457178036
 C         -5.6010478889       -1.9914954292        3.3363452750
 C         -5.0935816535       -1.6637063554        2.0925392051
 C         -4.5218273465        1.8970413843       -0.3982948704
 C         -5.6073182429        2.2520276599       -1.1929199365
 C         -5.8782308672        3.5778499106       -1.4800826747
 C         -5.0633530162        4.5768421344       -0.9748096636
 C         -3.9765634362        4.2416543730       -0.1843617391
 C         -3.7114439720        2.9143381139        0.0991536380
 C         -1.6641747716       -0.9712108947        0.9928297827
 C         -0.2981499911       -1.1751204550        0.9784043105
 C          2.8099438450        0.2845207280       -0.2839479856
 C          4.1928278293        0.1110995328       -0.3024380624
 H          6.4690693435        3.4395041622       -0.0401305827
 H          8.7690301432        3.5770557174        0.8690991032
 H         10.0207954815        1.5056341980        1.3676892190
 H          8.9565958751       -0.7061072253        0.9156691832
 H          4.3119553939       -3.1884989052        0.3952282715
 H          1.8457501046       -2.8697392049        0.4476578402
 H          0.4833469634        0.7083082473       -1.7139215974
 H         -1.9423234907        1.0653668591       -1.6726114772
 H         -6.8946066319       -0.9689140482       -0.3844938686
 H         -7.9447360597       -2.4278713842       -2.0614740673
 H         -6.5921238790       -3.3731755840       -3.8968758072
 H         -4.1850940402       -2.8467146191       -4.0419838612
 H         -3.1417303926       -1.3829783463       -2.3665656684
 H         -5.0317448690        1.6915548158        2.3923219334
 H         -5.9335764985        1.1178065242        4.6072922766
 H         -6.3012211086       -1.2446443816        5.2176659313
 H         -5.7640027461       -3.0273688121        3.5979778836
 H         -4.8681285245       -2.4472468251        1.3821599353
 H         -6.2444243000        1.4766284527       -1.5941087016
 H         -6.7260993273        3.8334831615       -2.0994453188
 H         -5.2728603023        5.6130167956       -1.1978220127
 H         -3.3351067913        5.0169271118        0.2099453951
 H         -2.8580323411        2.6582787929        0.7119712860
 H         -2.2634432331       -1.4380221701        1.7611861546
 H          0.1630154825       -1.7863443632        1.7408256941
 H          2.4190004004        1.2740342892       -0.4700592702
  68
       -109.55790448
 O          4.4955236337        1.3374843316       -2.2257693422
 C          4.9757498155        0.8129399215       -1.2419232745
 C          6.3530343276        1.1449927390       -0.7941162624
 C          6.9008114345        2.3600012508       -1.2121197535
 C          8.1651873378        2.7390211047       -0.8020705390
 C          8.9072616894        1.9120590919        0.0284449208
 C          8.3810761410        0.6964919969        0.4373879872
 C          7.1158888439        0.3258703586        0.0293792713
 S          6.4930116710       -1.2898214404        0.4827324367
 O          6.8183545082       -2.2048205415       -0.5782537862
 O          6.9338967562       -1.6221838586        1.8097048208
 C          4.7252085686       -1.0360194641        0.4763088165
 C          3.9222041588       -1.8340222750        1.2662935757
 C          2.5460397781       -1.7011845069        1.2105076723
 C          1.9589632433       -0.7797586501        0.3414594575
 C          0.4990688734       -0.6312260839        0.2693070617
 C         -0.1358952514       -0.4427681434       -0.9569712500
 C         -1.5054275740       -0.2795755991       -1.0166435176
 C         -2.2862936258       -0.2869625155        0.1363337476
 Si        -4.1511656277        0.0409293495        0.0342546390
 C         -4.8395978644       -0.8315862199       -1.4987465504
 C         -5.8027062202       -0.2310600830       -2.3032577641
 C         -6.3202046970       -0.8863326925       -3.4062259042
 C         -5.8812156640       -2.1604375809       -3.7243923531
 C         -4.9200297962       -2.7720239496       -2.9367159946
 C         -4.4059956455       -2.1112029220       -1.8361207678
 C         -5.0132579670       -0.6046273359        1.5928130089
 C         -4.9740868079        0.1306274799        2.7748498188
 C         -5.5927490931       -0.3294640596        3.9228279924
 C         -6.2666864884       -1.5394100452        3.9084008486
 C         -6.3181957370       -2.2821119438        2.7409536301
 C         -5.6965283450       -1.8165304239        1.5961526196
 C         -4.4312279537        1.9110800321       -0.0860480485
 C         -3.4248112525        2.7703268675       -0.5156055983
 C         -3.6437614679        4.1325752042       -0.6151882832
 C         -4.8799380784        4.6616962046       -0.2851049571
 C         -5.8926955565        3.8215062146        0.1469479826
 C         -5.6671127974        2.4606453957        0.2446720951
 C         -1.6461983957       -0.4874991853        1.3548148880
 C         -0.2779715594       -0.6628014884        1.4253032647
 C          2.7841534030        0.0094629620       -0.4539568156
 C          4.1718560839       -0.1008285851       -0.3911253242
 H          6.3107536037        2.9908871883       -1.8600249235
 H          8.5755466463        3.6817851456       -1.1311409460
 H          9.8930374004        2.2097145379        0.3517515565
 H          8.9316251999        0.0237444026        1.0761067085
 H          4.3953104631       -2.5496132198        1.9205038785
 H          1.9197770571       -2.3307068832        1.8243527933
 H          0.4482332224       -0.4436076297       -1.8656501844
 H         -1.9838010090       -0.1439154956       -1.9763697387
 H         -6.1466641011        0.7646491264       -2.0615561615
 H         -7.0670991943       -0.4032947467       -4.0199484646
 H         -6.2843209490       -2.6743513747       -4.5849791584
 H         -4.5722450711       -3.7655224802       -3.1816951410
 H         -3.6514321820       -2.5907168532       -1.2277846591
 H         -4.4577313517        1.0807551298        2.7889865926
 H         -5.5522896755        0.2559822580        4.8304109628
 H         -6.7523217484       -1.9004806192        4.8034096160
 H         -6.8458044564       -3.2251134046        2.7233884788
 H         -5.7450503801       -2.3981738601        0.6864563468
 H         -2.4561391679        2.3645974089       -0.7712457518
 H         -2.8491362682        4.7838641117       -0.9503387226
 H         -5.0531064619        5.7253805299       -0.3616204687
 H         -6.8585380743        4.2294266433        0.4091972909
 H         -6.4587634044        1.8098069109        0.5894505281
 H         -2.2324463032       -0.5068526108        2.2621695410
 H          0.1988906166       -0.7954276335        2.3858168286
 H          2.3617472943        0.7436205066       -1.1241593099
  68
       -109.55782067
 O          4.5783659826        1.2234324110        2.2754909848
 C          5.0518650214        0.7292852003        1.2719795665
 C          6.4730937475        0.9648732950        0.9084776219
 C          7.1207507683        2.0564564994        1.4930187555
 C          8.4351575509        2.3464015937        1.1800194462
 C          9.1292652245        1.5533681027        0.2779574661
 C          8.5031554507        0.4592535929       -0.2982876507
 C          7.1893272058        0.1761495572        0.0161491873
 S          6.4497439675       -1.3116200304       -0.6476928556
 O          6.8770728578       -1.4999692422       -2.0071170685
 O          6.6999471104       -2.3785071059        0.2844199515
 C          4.7038470640       -0.9397583765       -0.6089022369
 C          3.8576377533       -1.6215157806       -1.4605614310
 C          2.4911081836       -1.4219162972       -1.3850652790
 C          1.9545609839       -0.5443570781       -0.4403223656
 C          0.5015725782       -0.3524755910       -0.3373854429
 C         -0.2954343116       -0.3135769703       -1.4804369377
 C         -1.6629808723       -0.1586961143       -1.3752011737
 C         -2.2847951848       -0.0383305286       -0.1350840511
 Si        -4.1701911189        0.1296570233       -0.0250456217
 C         -4.9200317503       -1.1757201764       -1.1766052682
 C         -6.0920659370       -0.9351933132       -1.8864377164
 C         -6.6430186434       -1.9058946614       -2.7037923198
 C         -6.0274821760       -3.1401957941       -2.8261343326
 C         -4.8581243301       -3.3958840924       -2.1294282473
 C         -4.3128144871       -2.4214718104       -1.3138398315
 C         -4.7408084127       -0.1743563566        1.7552666050
 C         -4.6413141862        0.8353180706        2.7091755239
 C         -5.0467550969        0.6262753375        4.0145921286
 C         -5.5628631780       -0.6028603396        4.3904817457
 C         -5.6711420526       -1.6171913895        3.4541811554
 C         -5.2628896951       -1.4020175997        2.1500293945
 C         -4.7207597765        1.8653153803       -0.5464893450
 C         -5.9859122242        2.3273577845       -0.1923607551
 C         -6.4236564091        3.5801536335       -0.5806386079
 C         -5.5979159681        4.3990700558       -1.3328416708
 C         -4.3345097397        3.9583063599       -1.6884544848
 C         -3.9031013153        2.7032039171       -1.2977647513
 C         -1.4823167679       -0.0722485112        1.0004472629
 C         -0.1124855757       -0.2240933811        0.9068759771
 C          2.8231679105        0.1337274616        0.4091405130
 C          4.2034077411       -0.0506686657        0.3356234627
 H          6.5662971908        2.6630053136        2.1935790469
 H          8.9225084293        3.1919703501        1.6414517597
 H         10.1549121766        1.7808274484        0.0306109024
 H          9.0130443983       -0.1855249731       -0.9968377198
 H          4.2907763363       -2.3043687925       -2.1746319607
 H          1.8321304966       -1.9688003684       -2.0421788241
 H          0.1639033212       -0.3860908528       -2.4558068798
 H         -2.2662590997       -0.1403164641       -2.2719765833
 H         -6.5747373483        0.0278110145       -1.7987691308
 H         -7.5542929575       -1.7006904171       -3.2472483002
 H         -6.4558680658       -3.8997925621       -3.4638999893
 H         -4.3721137657       -4.3567550716       -2.2224463073
 H         -3.3977427024       -2.6250407830       -0.7747587008
 H         -4.2449936812        1.7985713026        2.4188556918
 H         -4.9625050451        1.4221938100        4.7407868087
 H         -5.8819737239       -0.7683757394        5.4092977595
 H         -6.0759633857       -2.5769880128        3.7418390538
 H         -5.3537799191       -2.1959147271        1.4221493032
 H         -6.6310799996        1.6955870147        0.4024399114
 H         -7.4093067607        3.9203826148       -0.2965092233
 H         -5.9373693850        5.3782091729       -1.6382877781
 H         -3.6846888646        4.5952292042       -2.2716013586
 H         -2.9134360952        2.3684059370       -1.5743986043
 H         -1.9426892108        0.0115456441        1.9743335817
 H          0.4858507704       -0.2740741981        1.8047039952
 H          2.4433417570        0.8336446264        1.1387991296
  68
       -109.55771836
 O          4.6080858393        2.4562009888        0.7108468654
 C          5.0482705356        1.3480922150        0.4826494873
 C          6.4181203496        0.9663189426        0.9136062167
 C          7.0070763452        1.6993141404        1.9464836762
 C          8.2667624094        1.3714205490        2.4116033866
 C          8.9629581724        0.3090390642        1.8541247742
 C          8.3962697059       -0.4159975653        0.8174180588
 C          7.1363849497       -0.0868656403        0.3602951071
 S          6.4692998956       -0.9607846448       -1.0518921972
 O          6.8177077999       -0.2197023140       -2.2346309410
 O          6.8578202862       -2.3435831342       -0.9929329723
 C          4.7082489353       -0.8152865937       -0.7972311636
 C          3.8655320862       -1.7709211681       -1.3286687456
 C          2.4952218898       -1.6321532477       -1.2012846777
 C          1.9520294818       -0.5184468936       -0.5566325471
 C          0.4971742396       -0.3667445069       -0.4214806061
 C         -0.3598989366       -0.7508725583       -1.4511250032
 C         -1.7276494173       -0.6245169311       -1.3094303913
 C         -2.2898787223       -0.1148455429       -0.1433609760
 Si        -4.1692730366        0.0636411635        0.0458565212
 C         -5.0323077572       -1.2776436260       -0.9782814520
 C         -5.2023372289       -1.1135935526       -2.3508084561
 C         -5.8059987316       -2.0930170003       -3.1179405333
 C         -6.2559959791       -3.2595557806       -2.5220791378
 C         -6.1021736782       -3.4361686457       -1.1574654595
 C         -5.4955357716       -2.4533000038       -0.3960415851
 C         -4.6105691081       -0.1297592553        1.8772272006
 C         -5.5471549927        0.6962223247        2.4900591194
 C         -5.8782369835        0.5334687124        3.8234575098
 C         -5.2751084848       -0.4640414496        4.5706174443
 C         -4.3380572587       -1.2939744628        3.9777085617
 C         -4.0113314986       -1.1255745734        2.6446760521
 C         -4.7055862576        1.7628300174       -0.5942683030
 C         -6.0361966337        2.0007157645       -0.9285583948
 C         -6.4463968430        3.2393494648       -1.3864423697
 C         -5.5270707449        4.2667231849       -1.5205609023
 C         -4.1991107378        4.0464163018       -1.1961581135
 C         -3.7954062769        2.8054128889       -0.7371217592
 C         -1.4274496538        0.2747197447        0.8776273945
 C         -0.0584701076        0.1536143126        0.7462208433
 C          2.8174077498        0.4389472020       -0.0357577647
 C          4.2002890397        0.2997160297       -0.1402370693
 H          6.4524228620        2.5233292127        2.3699718234
 H          8.7093891670        1.9460059042        3.2110920753
 H          9.9449242921        0.0506581424        2.2199456143
 H          8.9098452791       -1.2430612539        0.3527893617
 H          4.3042387980       -2.6201590566       -1.8287788942
 H          1.8401275842       -2.3963685158       -1.5911705249
 H          0.0510293634       -1.1293348974       -2.3757813790
 H         -2.3754978938       -0.9329616754       -2.1169745807
 H         -4.8633445064       -0.1999986978       -2.8196562652
 H         -5.9281228294       -1.9475906246       -4.1818804557
 H         -6.7281069889       -4.0263257949       -3.1190792322
 H         -6.4562726157       -4.3421390035       -0.6865710415
 H         -5.3828287739       -2.5959638639        0.6692807194
 H         -6.0184573130        1.4792045180        1.9131136524
 H         -6.6076246128        1.1856802991        4.2821645795
 H         -5.5321327628       -0.5933535833        5.6119641121
 H         -3.8619171519       -2.0725498985        4.5567750990
 H         -3.2741578356       -1.7724138824        2.1888747285
 H         -6.7558942694        1.1994590597       -0.8323826900
 H         -7.4836089911        3.4053910493       -1.6407414336
 H         -5.8446752476        5.2349144116       -1.8796983365
 H         -3.4774545281        4.8437246979       -1.3020819263
 H         -2.7569033078        2.6380755497       -0.4881402110
 H         -1.8400401736        0.6736809057        1.7933342933
 H          0.5870215726        0.4403324134        1.5636294337
 H          2.4321859375        1.3215094737        0.4531963955
  68
       -109.55756866
 O          4.4634401558        1.6972591158        1.9707431543
 C          4.9381654205        1.0272037266        1.0768324393
 C          6.2830140720        1.3295570171        0.5229993682
 C          6.7817268019        2.6239337124        0.6852166542
 C          8.0117685872        2.9732589981        0.1603343990
 C          8.7670220514        2.0377584338       -0.5315385910
 C          8.2903542497        0.7449095341       -0.6843155618
 C          7.0590759236        0.4032213062       -0.1630642892
 S          6.5040690939       -1.2952963322       -0.2756628534
 O          6.9241998448       -1.8583635102       -1.5296338695
 O          6.9052515131       -1.9734274299        0.9275383793
 C          4.7265942371       -1.1186462423       -0.2585376396
 C          3.9406655124       -2.0790780032       -0.8633445595
 C          2.5615079430       -1.9788607724       -0.8088538843
 C          1.9564145526       -0.9240161267       -0.1239992595
 C          0.4943607380       -0.7879931688       -0.0731069616
 C         -0.1442218428       -0.3967592016        1.1017045303
 C         -1.5134896232       -0.2199370719        1.1275983217
 C         -2.2883409194       -0.4123077392       -0.0118951882
 Si        -4.1425442439       -0.0135932074       -0.0230608561
 C         -5.0087227063       -1.1429551705       -1.2714416951
 C         -5.9754905116       -0.6532527157       -2.1436515063
 C         -6.6193319158       -1.4898965868       -3.0377501080
 C         -6.3057999211       -2.8380605865       -3.0742584207
 C         -5.3434244505       -3.3424428941       -2.2152457550
 C         -4.7029834829       -2.5005655196       -1.3245396869
 C         -4.8853120255       -0.2524955702        1.7029583168
 C         -4.7005730283        0.7147391629        2.6877792582
 C         -5.2259594620        0.5514855718        3.9564587008
 C         -5.9534130702       -0.5865006801        4.2631638569
 C         -6.1531041737       -1.5549594412        3.2939674358
 C         -5.6224712860       -1.3869950942        2.0275376366
 C         -4.3324169443        1.8046432779       -0.5231390112
 C         -5.5050616017        2.4993621600       -0.2390760835
 C         -5.6556321146        3.8250222598       -0.6032493630
 C         -4.6293147590        4.4834244232       -1.2601207238
 C         -3.4552777742        3.8084703503       -1.5485730704
 C         -3.3117257848        2.4822094414       -1.1828385585
 C         -1.6448583878       -0.8228330903       -1.1761259322
 C         -0.2781233266       -1.0166098748       -1.2098182678
 C          2.7644349113        0.0238256315        0.4964790193
 C          4.1536685334       -0.0545027965        0.4287417331
 H          6.1810722892        3.3396209685        1.2266085565
 H          8.3849311494        3.9777787080        0.2912843323
 H          9.7257045983        2.3118933412       -0.9446964749
 H          8.8538661393       -0.0113425213       -1.2079192758
 H          4.4288089711       -2.8916656985       -1.3783451190
 H          1.9478142476       -2.7315839811       -1.2802463744
 H          0.4377623005       -0.2456542646        1.9990888003
 H         -1.9936135063        0.0781118174        2.0482024683
 H         -6.2218667713        0.3988567230       -2.1218760649
 H         -7.3672341967       -1.0909062221       -3.7080425798
 H         -6.8077345049       -3.4935481967       -3.7711416159
 H         -5.0932365003       -4.3935789804       -2.2410961485
 H         -3.9480411043       -2.8982683149       -0.6601754846
 H         -4.1439938030        1.6109949781        2.4506410424
 H         -5.0711282678        1.3129259363        4.7076236976
 H         -6.3666967699       -0.7156313346        5.2528974034
 H         -6.7231408345       -2.4429146138        3.5270355885
 H         -5.7863875406       -2.1444474575        1.2742379814
 H         -6.3063652538        1.9920873469        0.2802501105
 H         -6.5730805668        4.3478651772       -0.3733379108
 H         -4.7434093279        5.5196229607       -1.5439262577
 H         -2.6498926175        4.3179519238       -2.0582825695
 H         -2.3909713978        1.9622764685       -1.4074954023
 H         -2.2276461932       -0.9862516187       -2.0715808542
 H          0.2025643499       -1.3113640191       -2.1317106306
 H          2.3248592983        0.8583471319        1.0226912860
  68
       -109.55735630
 O          4.4486630963        1.8616207716        1.8137513208
 C          4.9259204704        1.1192887029        0.9806646340
 C          6.2648321392        1.3845654320        0.3937189244
 C          6.7483805111        2.6941866539        0.4301881612
 C          7.9717178205        3.0066556334       -0.1324232410
 C          8.7357787843        2.0186647305       -0.7359827680
 C          8.2744975409        0.7115281247       -0.7627810781
 C          7.0492972836        0.4066955135       -0.2058566207
 S          6.5102280070       -1.2997569811       -0.1558864260
 O          6.9409197057       -1.9781443219       -1.3475910167
 O          6.9098773837       -1.8537533689        1.1097327007
 C          4.7314941356       -1.1356434230       -0.1629333610
 C          3.9538281666       -2.1474362993       -0.6894345272
 C          2.5737755647       -2.0526407298       -0.6458276073
 C          1.9601540531       -0.9518512747       -0.0464089202
 C          0.4969360697       -0.8234619266       -0.0061783800
 C         -0.1458424300       -0.3566407228        1.1383827717
 C         -1.5158337237       -0.1847517723        1.1494462179
 C         -2.2872245994       -0.4546147783        0.0229598937
 Si        -4.1376184638       -0.0389550756       -0.0188693226
 C         -4.9938382592       -1.1268654061       -1.3099080225
 C         -5.8975838043       -0.5918790997       -2.2222561595
 C         -6.5352704029       -1.3955995697       -3.1503381364
 C         -6.2793273357       -2.7559865867       -3.1810302669
 C         -5.3806752613       -3.3056766478       -2.2816692833
 C         -4.7456605608       -2.4964136166       -1.3573874879
 C         -4.9291310926       -0.2906501772        1.6840819067
 C         -4.7744027481        0.6711763808        2.6793630122
 C         -5.3437411955        0.5046687244        3.9284502749
 C         -6.0851275399       -0.6318946701        4.2053062314
 C         -6.2542868070       -1.5957241874        3.2257576261
 C         -5.6806261965       -1.4239606522        1.9787403686
 C         -4.2846236010        1.7919641200       -0.4865261101
 C         -5.4558802374        2.4987489081       -0.2278196357
 C         -5.5724065032        3.8351381992       -0.5641173212
 C         -4.5127797811        4.4922307879       -1.1673270027
 C         -3.3400072118        3.8050328717       -1.4308490061
 C         -3.2305189220        2.4681582669       -1.0929735330
 C         -1.6394538115       -0.9409222912       -1.1090873242
 C         -0.2719953407       -1.1332467300       -1.1256859070
 C          2.7599489556        0.0497315190        0.4954517307
 C          4.1497775260       -0.0222243808        0.4329512652
 H          6.1411858686        3.4511066244        0.9039586566
 H          8.3328383006        4.0235328084       -0.0998457793
 H          9.6899826813        2.2633699957       -1.1770516083
 H          8.8449234253       -0.0843572619       -1.2153254947
 H          4.4489975305       -2.9955457596       -1.1358979139
 H          1.9660098098       -2.8443490053       -1.0573295532
 H          0.4340289276       -0.1411327323        2.0239286389
 H         -1.9991067995        0.1735627071        2.0465369100
 H         -6.0990334269        0.4698298686       -2.2050035417
 H         -7.2333962714       -0.9612290857       -3.8516371256
 H         -6.7763638113       -3.3857964666       -3.9045838587
 H         -5.1752333967       -4.3665762187       -2.3030100346
 H         -4.0391823643       -2.9298952167       -0.6627412391
 H         -4.2081411511        1.5672113555        2.4654624787
 H         -5.2127299974        1.2628308066        4.6873925795
 H         -6.5328608152       -0.7635386407        5.1796767081
 H         -6.8367459505       -2.4817454831        3.4345117398
 H         -5.8233746033       -2.1769180930        1.2168085083
 H         -6.2832181780        1.9922702937        0.2498149643
 H         -6.4894602322        4.3672003970       -0.3546805896
 H         -4.6001749575        5.5368498363       -1.4288652557
 H         -2.5088031106        4.3132533601       -1.8986272492
 H         -2.3107499495        1.9383660969       -1.2979499329
 H         -2.2185208377       -1.1638266616       -1.9939420772
 H          0.2122067576       -1.4878022052       -2.0244195719
 H          2.3130710207        0.9207468040        0.9518426796
