79
 energy: -125.827859478018 gnorm: 0.000066851125 xtb: 6.7.1 (edcfbbe)
C           -6.02062974838593       -4.86467698265519        0.13195246578877
C           -6.72064387131458       -3.66777273954502        0.10837684415246
C           -6.04080109838761       -2.46641995684670        0.06420213389365
C           -4.64535513015018       -2.44846626256655        0.04323796050865
C           -3.92495902048150       -1.17971099343803        0.00965879259232
N           -4.64731500814190       -0.04028363603134        0.00614702932849
C           -3.94516217625718        1.11163487656723       -0.00214412723308
C           -4.68762033176474        2.36768698442862       -0.03205619061864
C           -6.08331327843938        2.36198473115669       -0.03494417700017
C           -6.78384527785960        3.55154436686604       -0.07486258261199
C           -6.10452355074745        4.75996645108453       -0.11223193123731
C           -4.71686890577855        4.77384392446780       -0.10850402010566
C           -4.01098514576408        3.58849481616949       -0.06871760617373
N           -2.63749537799689        1.15646592375478        0.00961109551718
C           -1.95504091353210       -0.01666356090056       -0.00118844985999
C           -0.53521181338760       -0.00403419740906       -0.00312150344239
C            0.17730012116375        1.20597500421064        0.12856378403896
C            1.55872650886417        1.21112133457014        0.12587155012078
N            2.24666951085739        2.42543395667772        0.27851842296110
C            2.00295966010567        3.58133916020409       -0.43281986128985
C            1.10896458417833        3.80898337834220       -1.47200462207383
C            1.08106931988125        5.07252694787166       -2.03327874804165
C            1.92702587053283        6.08485547597762       -1.58649069201195
C            2.83688325267965        5.85719255597622       -0.56815468527492
C            2.88055419410598        4.59903450730660        0.01267138744176
C            3.68183660388263        4.01635953256507        1.05739375621428
C            4.68340726683456        4.50903529483316        1.87978886311478
C            5.23640531785087        3.66520285002631        2.82789609023803
C            4.79010731806753        2.35347472114855        2.96879070173454
C            3.79362671845932        1.83966959913925        2.15926703024295
C            3.25282362609796        2.67359370245734        1.18834199646160
C            2.28068626029036        0.02064154883420       -0.00393457639592
C            1.57972874615074       -1.18231896625927       -0.13399703503488
N            2.28851587752929       -2.38447791438580       -0.28690908333478
C            2.06242183744852       -3.54553687948202        0.42199767253490
C            1.17048689880806       -3.78978900076961        1.45920155788110
C            1.16200685501759       -5.05480048050087        2.01780207110012
C            2.02498867571936       -6.05242594844335        1.57050850076800
C            2.93317644809088       -5.80779923104094        0.55463478147128
C            2.95754173420577       -4.54785519679959       -0.02346653141030
C            3.75152618950357       -3.95013912991383       -1.06522545231634
C            4.76321383712923       -4.42483044355992       -1.88580497130230
C            5.30477013378579       -3.57032870363364       -2.83093365056347
C            4.83727825835760       -2.26589554841099       -2.97072592926042
C            3.83017342554670       -1.77008685626978       -2.16311125638949
C            3.30077835606850       -2.61438518753110       -1.19484875241203
C            0.19839445876492       -1.20119620999526       -0.13617076905333
N           -2.61677809299125       -1.20166570556445       -0.00934179780104
C           -3.94782755818680       -3.65779723304889        0.06597169968375
C           -4.63310800062980       -4.85506263374152        0.10978790353163
H           -6.55448239779988       -5.80279905873164        0.16768726401091
H           -7.80090486719425       -3.67311326365403        0.12533714476332
H           -6.57109359460887       -1.52643134958491        0.04655226247949
H           -6.59737473884798        1.41328368311998       -0.00665971783016
H           -7.86416761795279        3.53869589777657       -0.07767778397428
H           -6.65455247152869        5.68882583387728       -0.14462814812799
H           -4.18592829468931        5.71427045525721       -0.13777941769940
H           -2.93147449661697        3.58411006505220       -0.06753347049371
H           -0.37719949828275        2.11990887103025        0.26688353644325
H            0.45896926099221        3.02629379243151       -1.83247867359169
H            0.39023887374519        5.27627648940024       -2.83793866998297
H            1.87454682525631        7.05904511157752       -2.04917689345657
H            3.50039968872337        6.63985113978810       -0.23352807851865
H            5.01832205424291        5.53064554831871        1.78518756065504
H            6.01825671375481        4.02974516130983        3.47726759437085
H            5.22759439007424        1.72452466691509        3.72977056414214
H            3.43871449481137        0.82894020826528        2.28902190333024
H            3.35801032867572        0.03014068345274       -0.00355930853278
H            0.50740356699698       -3.01852722717731        1.82043396671598
H            0.47310314873102       -5.27127253306012        2.82078714113099
H            1.98728149278586       -7.02834577119197        2.03096830445324
H            3.61005448000856       -6.57882237663319        0.21976766543789
H            5.11463755813714       -5.44095544883762       -1.79204612195269
H            6.09439535906861       -3.92071366102413       -3.47868963499799
H            5.26632431477174       -1.62851039960630       -3.72948161281302
H            3.45882104597947       -0.76524937742384       -2.29250020959862
H           -0.34015234900048       -2.12457349984194       -0.27457903641521
H           -2.86865520705653       -3.63523971904784        0.05079528522324
H           -4.08609785491946       -5.78652043119030        0.12805910648097
