79
 energy: -125.828081242870 gnorm: 0.000037626334 xtb: 6.7.1 (edcfbbe)
C           -5.98684804778131       -4.90962122403904       -0.54173789470182
C           -6.68863995323182       -3.71505754305127       -0.60198795558048
C           -6.01465865576522       -2.51061462163341       -0.55224545736084
C           -4.62352052387620       -2.48717445839025       -0.44227228409785
C           -3.91027825381408       -1.21468443424843       -0.38935226871826
N           -4.63942049284393       -0.07990540795760       -0.41638181968142
C           -3.94745547267501        1.07607704979715       -0.34757967384384
C           -4.70070057996280        2.32641388466771       -0.34367112905300
C           -6.09331503934463        2.31079605548082       -0.43411840196888
C           -6.80439277685939        3.49474593119425       -0.42558751253102
C           -6.13860228786785        4.70723810615963       -0.32665261869526
C           -4.75407498762985        4.73086123957422       -0.23557712346400
C           -4.03775788209684        3.55110012372340       -0.24412825675184
N           -2.64214220837884        1.12985632174884       -0.27851201180264
C           -1.95185945549585       -0.03940611363860       -0.26380405412252
C           -0.53684579897556       -0.01578469805687       -0.16489903852329
C            0.16425266107536        1.20779184562928       -0.12118023370891
C            1.53776096282290        1.22755774100228        0.02576913202687
N            2.20827808519122        2.45763726383559        0.11100879797276
C            3.32994856043698        2.82559295796354       -0.60255134877374
C            4.01432039773995        2.13512010622754       -1.59405206697964
C            5.10688359640587        2.74971958541777       -2.17699495235146
C            5.50879055477920        4.02716780050645       -1.79507711142540
C            4.81397621728746        4.73373703127833       -0.82841134141591
C            3.71556550654667        4.13549718568303       -0.23007471602745
C            2.76724698494736        4.57102139262689        0.76165055177572
C            2.62354617999597        5.73848040760317        1.49544652107404
C            1.57656069247050        5.82930747221775        2.39647423755018
C            0.69321803916056        4.76811349352976        2.57888587476077
C            0.82013839368550        3.59209878496499        1.86236234955580
C            1.85310463909460        3.50441762420960        0.93704752832688
C            2.26691447205915        0.03671757398936        0.11678167994094
C            1.57951248574167       -1.17996802161877        0.05066054613216
N            2.29304409146352       -2.38343207900710        0.16614045763019
C            1.98421440249177       -3.41003153044140        1.03407566296813
C            0.96852118736163       -3.49366633122420        1.97841483363290
C            0.89085992647436       -4.64411802808668        2.74180331791691
C            1.80505293288074       -5.68312379726404        2.58468320115833
C            2.83473221414696       -5.59463125123815        1.66353899554839
C            2.92985388147188       -4.45256440279440        0.88324656648944
C            3.84947074827727       -4.02256101108872       -0.13771833790853
C            4.95858783081737       -4.60522709666992       -0.73169883461068
C            5.61726597791389       -3.90979337036549       -1.73124624864556
C            5.17055723248875       -2.65864240545402       -2.14890511174502
C            4.06627481260359       -2.05994206912227       -1.57156015780130
C            3.41672697444997       -2.73920115091321       -0.54944087817626
C            0.20646235752048       -1.21302547919066       -0.09748955533438
N           -2.60417426730611       -1.22923591564531       -0.31424671367017
C           -3.92423267603701       -3.69398389298322       -0.38160660620383
C           -4.60360143490814       -4.89448055078591       -0.43128459340628
H           -6.51595077306893       -5.85030174145255       -0.58060285560999
H           -7.76558026373182       -3.72463434024879       -0.68790526696834
H           -6.54616501955539       -1.57226867013526       -0.59794601079234
H           -6.59657034817395        1.35893493849167       -0.51021962370925
H           -7.88228778294420        3.47441579519744       -0.49611888830231
H           -6.69682635448457        5.63172940607617       -0.31965943971782
H           -4.23397221446202        5.67453783530479       -0.15742543525389
H           -2.96058775660674        3.55410962964649       -0.17294111647486
H           -0.39300775088062        2.12440446293499       -0.22660248348532
H            3.69390528898456        1.15587039757479       -1.91115731244929
H            5.65620995438740        2.23005774048703       -2.94777182553012
H            6.36860533995914        4.47491171003524       -2.27052540388661
H            5.11524342644662        5.73164182291686       -0.54871517159761
H            3.31560199373548        6.55643950030901        1.36612320573504
H            1.44461641788424        6.73162098514725        2.97458191419289
H           -0.10689531944250        4.86245039067691        3.29804365134774
H            0.14089777750320        2.76881168178103        2.02269232369530
H            3.33068225924915        0.05609465168109        0.28855463012941
H            0.26656895546704       -2.68546883562947        2.11699168606840
H            0.10587471940652       -4.73585362107325        3.47775765308117
H            1.71149646270257       -6.56593960104030        3.19927383565986
H            3.54997247958038       -6.39547909543607        1.55453759102016
H            5.29565494089275       -5.58315668852336       -0.42389956968341
H            6.48461009984054       -4.34600038120582       -2.20377664664455
H            5.69361452428399       -2.14777937541260       -2.94349825259757
H            3.71080322182139       -1.10176858099217       -1.91490744567829
H           -0.31735018554404       -2.15143357586543       -0.18086584403981
H           -2.84852533078335       -3.66707910523292       -0.29503157017391
H           -4.05545642850350       -5.82422855951419       -0.38384775499910
