  79
       -125.77190029
 C         -5.9911590126       -4.8915486618       -0.6511214989
 C         -6.6903997468       -3.6947688303       -0.6839802799
 C         -6.0151621665       -2.4936490630       -0.5986269166
 C         -4.6251060724       -2.4787445155       -0.4797911608
 C         -3.9101077271       -1.2119690298       -0.3950458404
 N         -4.6301336967       -0.0721673563       -0.4152376465
 C         -3.9429839984        1.0831357807       -0.3239449457
 C         -4.6948209033        2.3318887537       -0.3085480006
 C         -6.0847096386        2.3152328984       -0.4279710665
 C         -6.7963202004        3.4980391173       -0.4059290043
 C         -6.1336620277        4.7076793352       -0.2642189641
 C         -4.7515560560        4.7305926955       -0.1451961179
 C         -4.0333170385        3.5525941079       -0.1668661763
 N         -2.6399144900        1.1261288653       -0.2426023647
 C         -1.9471653079       -0.0405216502       -0.2339935991
 C         -0.5340905887       -0.0203533664       -0.1295260344
 C          0.1663220978        1.2029096048       -0.0920190142
 C          1.5397041840        1.2198874100        0.0466263134
 N          2.2119778944        2.4506194709        0.1164125701
 C          3.3204445213        2.8168491909       -0.6146636934
 C          3.9983600366        2.1182949308       -1.6042493581
 C          5.0792415904        2.7326712899       -2.2069684138
 C          5.4771244142        4.0177044302       -1.8465216420
 C          4.7894189860        4.7311835292       -0.8819311724
 C          3.7017184006        4.1338236808       -0.2630849815
 C          2.7638327106        4.5745915802        0.7336525565
 C          2.6185421861        5.7505366887        1.4542184858
 C          1.5838144027        5.8431411136        2.3670107601
 C          0.7129056085        4.7760778571        2.5747080927
 C          0.8395254993        3.5932979129        1.8711370140
 C          1.8607418067        3.5035614647        0.9339522081
 C          2.2670645723        0.0293370779        0.1417480299
 C          1.5781145565       -1.1862330754        0.0821278273
 N          2.2925145715       -2.3902274978        0.1942553143
 C          1.9899236227       -3.4181976434        1.0613567646
 C          0.9773292003       -3.5078965287        2.0077190058
 C          0.9071809754       -4.6593468126        2.7688909874
 C          1.8242365703       -5.6953505558        2.6077571266
 C          2.8486634411       -5.6022378789        1.6834247554
 C          2.9376552927       -4.4576819616        0.9055082324
 C          3.8510572582       -4.0244065558       -0.1169572436
 C          4.9597257893       -4.6034289381       -0.7155543278
 C          5.6123627361       -3.9061414767       -1.7157908368
 C          5.1598047526       -2.6560095212       -2.1303972089
 C          4.0566978291       -2.0607477046       -1.5491455813
 C          3.4127842945       -2.7420883857       -0.5254958862
 C          0.2052891169       -1.2191183470       -0.0599469942
 N         -2.6070883343       -1.2229691136       -0.3020393232
 C         -3.9268638670       -3.6868202588       -0.4461819780
 C         -4.6088725976       -4.8831144823       -0.5314269569
 H         -6.5217263927       -5.8299303402       -0.7187090825
 H         -7.7666555178       -3.7020636554       -0.7772187658
 H         -6.5443790316       -1.5536942145       -0.6231114560
 H         -6.5851584194        1.3653896302       -0.5362551137
 H         -7.8724571139        3.4809106702       -0.4987113743
 H         -6.6926957059        5.6317167483       -0.2461766538
 H         -4.2359263187        5.6734403290       -0.0338874893
 H         -2.9580902520        3.5554160832       -0.0736077906
 H         -0.3885879948        2.1207199286       -0.1988647625
 H          3.6818399955        1.1326413459       -1.9052509250
 H          5.6242835811        2.2070022142       -2.9768062620
 H          6.3284234935        4.4641149892       -2.3379545849
 H          5.0869792953        5.7346183886       -0.6179838265
 H          3.3011492663        6.5731378702        1.3041711671
 H          1.4509070560        6.7515116534        2.9351593406
 H         -0.0769635503        4.8735502703        3.3043706379
 H          0.1709421687        2.7657336850        2.0501022145
 H          3.3322082314        0.0482555196        0.3062088171
 H          0.2726280391       -2.7034755055        2.1499387164
 H          0.1253793449       -4.7565682750        3.5072962304
 H          1.7351663970       -6.5796622774        3.2207776145
 H          3.5666795457       -6.4000540907        1.5687671123
 H          5.3001579933       -5.5806340751       -0.4085554796
 H          6.4788788439       -4.3386986070       -2.1927294752
 H          5.6788502952       -2.1433255661       -2.9265125165
 H          3.6973053308       -1.1038952715       -1.8922301071
 H         -0.3189443756       -2.1576988300       -0.1377503457
 H         -2.8518719985       -3.6645934832       -0.3534999159
 H         -4.0646650490       -5.8160769877       -0.5054253420
