79
 energy: -125.906721181024 gnorm: 0.000037584546 xtb: 6.7.1 (edcfbbe)
C           -6.01487033672075       -4.81655077387399        0.61064819678612
C           -6.71902157044665       -3.64650654618663        0.36870462542830
C           -6.04379555014439       -2.45149894674464        0.21135342467678
C           -4.65202430286453       -2.41877061499307        0.29364611851764
C           -3.93390236625141       -1.15522519542614        0.13329584547492
N           -4.64659313645031       -0.03954186618822        0.00267738954767
C           -3.95381200011501        1.08847535075627       -0.12936279340446
C           -4.69453633925952        2.33934844759971       -0.28634464273064
C           -6.08654805873811        2.34697816655102       -0.20161465091474
C           -6.78330166280549        3.53021596548332       -0.35392258168015
C           -6.10060279498442        4.71342101888754       -0.59332072500844
C           -4.71643379935579        4.71235194809725       -0.67875915299519
C           -4.01360490866179        3.53280246482480       -0.52586963960483
N           -2.62259036319122        1.14651436217325       -0.12761278429940
C           -1.99320432248658       -0.01631154214767       -0.00021881385240
C           -0.52729315440663       -0.00379684873319       -0.00131314336944
C            0.15456801865126        1.19373459877243        0.18297398517891
C            1.54503503703141        1.20715720473363        0.17794164713979
N            2.23472501554110        2.41004910162447        0.36054983720722
C            1.98066240917269        3.59314472384808       -0.31020925187276
C            1.07386903249979        3.85580860731867       -1.32709863120869
C            1.04219692807994        5.13543998470403       -1.84916995437773
C            1.89758611977715        6.13211547914174       -1.38407206150774
C            2.82090014032821        5.86887933445175       -0.39147409974682
C            2.86996727904072        4.59058313351367        0.15010048631065
C            3.69149301807717        3.97445805606235        1.15573784203753
C            4.71292002549108        4.44367970973649        1.97188800831124
C            5.28870503794914        3.57450517985160        2.87741462116527
C            4.84675154859042        2.25775168642579        2.98583011969025
C            3.83273545704528        1.76794116228867        2.18392488905944
C            3.26843159595710        2.62924764247850        1.25389530310433
C            2.24903308882256        0.01942294899369       -0.00225586817627
C            1.56485993457796       -1.17990205645466       -0.18224692945784
N            2.27467169905909       -2.37083256188103       -0.36616267783040
C            2.04188582560926       -3.55871961193688        0.30385414698420
C            1.14022858713746       -3.83828180397709        1.32080276748502
C            1.13092545205023       -5.11890879281728        1.84132358383392
C            2.00342558534320       -6.09999827085397        1.37486613972695
C            2.92180698575709       -5.81954438393216        0.38241059379701
C            2.94838902487650       -4.53997758638422       -0.15776050121323
C            3.75821710241955       -3.90876416212802       -1.16353411461158
C            4.78715013983147       -4.35925952614125       -1.98081598555645
C            5.34623104923299       -3.47958784584013       -2.88666929556293
C            4.88066487184086       -2.17091292034997       -2.99416472445955
C            3.85890562794900       -1.69965636844010       -2.19098992854500
C            3.31123686835854       -2.57125627857103       -1.26059909040667
C            0.17439399615726       -1.18974295863880       -0.18630195033988
N           -2.60190477567513       -1.18993820723580        0.12850910431969
C           -3.94942661690173       -3.59914938384430        0.53535334104971
C           -4.63078555334773       -4.79054410373584        0.69336500248762
H           -6.54504521244743       -5.74917053998026        0.73437800630997
H           -7.79671531951028       -3.66756749487486        0.30327041516418
H           -6.57476760543783       -1.53186160151115        0.02115046709079
H           -6.60066644210574        1.41745558194435       -0.01321624854295
H           -7.86106467093783        3.53189223007934       -0.28634269679749
H           -6.64757408584197        5.63686430848201       -0.71269167873810
H           -4.18486418390684        5.63369807301700       -0.86501746087494
H           -2.93690765485375        3.51430439379284       -0.59089191301939
H           -0.40535960883556        2.09978983414558        0.34878374328675
H            0.41901525557559        3.08605692916170       -1.70722781303148
H            0.34135536668054        5.36542813425308       -2.63842349395858
H            1.84050217197156        7.12042523175761       -1.81582366794922
H            3.49488300234682        6.63680608728777       -0.04290505103441
H            5.04250040915550        5.46921550191168        1.90013799085442
H            6.08578865170791        3.91847131180380        3.51989310093118
H            5.30320704965378        1.60489860167577        3.71539127579784
H            3.48581722904298        0.75138760660640        2.29220853353488
H            3.32804561801328        0.02840630219716       -0.00254371850232
H            0.47225936923411       -3.08046264927780        1.70205892521971
H            0.43438926472590       -5.36199517506130        2.63046084426870
H            1.96357216276333       -7.08969071717949        1.80537786751275
H            3.60901655249793       -6.57519866612890        0.03283563860621
H            5.13516811194752       -5.37873316307245       -1.90979139565695
H            6.14865634463202       -3.80896702503800       -3.53012784155362
H            5.32443545554149       -1.50983782881133       -3.72413976791001
H            3.49359430464152       -0.68947815241285       -2.29849266840354
H           -0.37037338539459       -2.10502629246079       -0.35185305361530
H           -2.87311813038590       -3.56118999103186        0.59816970750609
H           -4.08251719924476       -5.70164229490286        0.88163663928072
