  58
       -102.23289123
 F          5.1955419524        2.3702579345       -2.0084616330
 B          5.0327550620        1.9496318438       -0.7158422222
 F          5.1930301595        2.9964946620        0.1608821085
 O          5.9751897186        0.8770416016       -0.4047046692
 C          5.6323765062       -0.2719633074        0.1087034455
 C          6.7552621798       -1.1588314627        0.4497060533
 C          6.6134042233       -2.5443440251        0.5254744480
 C          7.6980142647       -3.3374238806        0.8489938921
 C          8.9339969575       -2.7638036110        1.1022234888
 C          9.0861675186       -1.3890442639        1.0198637492
 C          8.0073940439       -0.5915009886        0.6912600734
 C          4.3236126113       -0.6348643226        0.3295401100
 C          3.2600915165        0.2186699256       -0.0271253838
 C          1.9073212322       -0.1342289561        0.1268312076
 C          0.9268242034        0.7593112435       -0.2627183671
 C         -0.5039259541        0.4999628298       -0.1496304073
 C         -1.3956737514        1.3036079827       -0.8670053795
 C         -2.7534652182        1.0839665339       -0.8040229705
 C         -3.2617227683        0.0527630099       -0.0136882116
 N         -4.6443982986       -0.1835107829        0.0506533265
 C         -5.5205821121        0.8106887083        0.5020465566
 C         -5.0742681623        2.0441161153        0.9603239229
 C         -5.9702940401        3.0039945121        1.4048812644
 C         -7.3257575819        2.7444158206        1.4114160435
 C         -7.7846374598        1.5043099262        0.9949472811
 C         -6.8945760064        0.5418420615        0.5544381634
 O         -7.4228292951       -0.6738175761        0.2010200615
 C         -6.5533865711       -1.6387415971       -0.2375522315
 C         -7.1028033127       -2.8524925658       -0.6090042007
 C         -6.2953244550       -3.8654708592       -1.1025149905
 C         -4.9400062158       -3.6457660916       -1.2426862340
 C         -4.3839176126       -2.4324540391       -0.8682829669
 C         -5.1728064838       -1.4208501629       -0.3340271829
 C         -2.3790156777       -0.7427948191        0.7173399460
 C         -1.0206226986       -0.5221731642        0.6507420656
 N          1.2725634453        1.9529655884       -0.8086540856
 C          2.5298432535        2.2305683205       -0.9280716127
 N          3.5400591561        1.4354742966       -0.5593893654
 H          5.6639414877       -3.0068620288        0.3049000471
 H          7.5810432820       -4.4098730917        0.8995881188
 H          9.7772257323       -3.3886015909        1.3564299040
 H         10.0489984491       -0.9391689619        1.2099516938
 H          8.1113539439        0.4801283567        0.6222825500
 H          4.0847199566       -1.5796832525        0.7837741879
 H          1.6727128521       -1.1043686852        0.5314619015
 H         -0.9928951558        2.0915872055       -1.4828378458
 H         -3.4329085993        1.6974264461       -1.3767642574
 H         -4.0171000320        2.2558868827        0.9813610774
 H         -5.5941636009        3.9550949547        1.7488226774
 H         -8.0272852967        3.4901379292        1.7496695353
 H         -8.8341400264        1.2583447603        1.0104588749
 H         -8.1686527679       -2.9807539533       -0.5089507870
 H         -6.7318202940       -4.8100148786       -1.3858606179
 H         -4.3015235846       -4.4145875369       -1.6494698494
 H         -3.3266962987       -2.2686472585       -1.0042028697
 H         -2.7728049211       -1.5257761394        1.3485382386
 H         -0.3632435640       -1.1330105738        1.2496508662
 H          2.8089618050        3.1814987332       -1.3595508179
