  58
  -101.869589866400       0.190383156064279      !
 F          5.1777463114       -3.0997133848       -0.3319255205
 B          5.0333654277       -1.8589786294       -0.8908316684
 F          5.2116852870       -1.9145921808       -2.2533262860
 O          5.9762400841       -0.9159500877       -0.2922795151
 C          5.6400226176        0.2531002842        0.1788287133
 C          6.7655380025        1.0928157020        0.6168294489
 C          6.6116482061        2.1179298896        1.5503409529
 C          7.6996022029        2.8796811314        1.9322107577
 C          8.9517873812        2.6327130279        1.3917697365
 C          9.1160268051        1.6099163545        0.4715472923
 C          8.0333850298        0.8420326762        0.0893304998
 C          4.3347099677        0.6810903284        0.2604390504
 C          3.2677866562       -0.1555518342       -0.1248902045
 C          1.9168611586        0.2110265865        0.0133450202
 C          0.9305679229       -0.6873172699       -0.3499270164
 C         -0.5000031050       -0.4286596379       -0.2305722673
 C         -1.3993418429       -1.3217465772       -0.8228502838
 C         -2.7584431910       -1.1238207020       -0.7303080285
 C         -3.2623370849       -0.0217127423       -0.0390184185
 N         -4.6476650717        0.1837160470        0.0632048475
 C         -5.2364809216        1.3480048066       -0.4429562927
 C         -4.5049352822        2.3214521341       -1.1122813369
 C         -5.1216615568        3.4604016054       -1.6067014613
 C         -6.4814131116        3.6408705550       -1.4533684807
 C         -7.2322099768        2.6615896328       -0.8215809902
 C         -6.6221639837        1.5223129863       -0.3287461415
 O         -7.4387302133        0.5832554673        0.2467577940
 C         -6.8509559442       -0.5597834987        0.7253252721
 C         -7.6872468391       -1.4945545330        1.3082043919
 C         -7.1654167293       -2.6575589606        1.8530058934
 C         -5.8010213577       -2.8655359480        1.8299782554
 C         -4.9589047460       -1.9332345546        1.2439777478
 C         -5.4691983852       -0.7813138422        0.6579044980
 C         -2.3723956469        0.8720660699        0.5567841173
 C         -1.0124467527        0.6705378442        0.4637104198
 N          1.2720223790       -1.8999064322       -0.8568606180
 C          2.5274362629       -2.1833991397       -0.9787752629
 N          3.5422067277       -1.3825226579       -0.6358987048
 H          5.6489987360        2.3047510709        2.0004986980
 H          7.5723915471        3.6677891299        2.6597100565
 H          9.7977368929        3.2323901448        1.6931118246
 H         10.0911099046        1.4097569896        0.0534996453
 H          8.1469434390        0.0417379938       -0.6251472058
 H          4.1001586302        1.6643884186        0.6264908762
 H          1.6907298504        1.1897050278        0.4005630804
 H         -1.0008707573       -2.1656414526       -1.3624742990
 H         -3.4441724032       -1.8123435505       -1.2011462225
 H         -3.4454272515        2.1850123257       -1.2608733895
 H         -4.5266336539        4.2012925491       -2.1179807230
 H         -6.9649815200        4.5271467535       -1.8322818096
 H         -8.2998211452        2.7577890627       -0.7058588555
 H         -8.7450755656       -1.2876511993        1.3301064686
 H         -7.8251065556       -3.3829190161        2.3020039229
 H         -5.3762045019       -3.7536102666        2.2715973570
 H         -3.8936566934       -2.1015809395        1.2527956251
 H         -2.7604082362        1.7156142321        1.1084431465
 H         -0.3507194520        1.3635043479        0.9591464289
 H          2.8009540772       -3.1458726211       -1.3872076565
  58
  -101.869433861200       0.161411136768282      !
 F          5.2059049426       -2.0845848603       -2.2800782168
 B          5.0536457561       -0.7886739012       -1.8656837826
 F          5.2425841403        0.0827433705       -2.9121968712
 O          5.9826605976       -0.4869773266       -0.7787844828
 C          5.6281815866        0.0343447594        0.3630951015
 C          6.7410163757        0.3629483085        1.2671463054
 C          6.5777570946        0.4446876258        2.6499603497
 C          7.6536101221        0.7560438003        3.4596621624
 C          8.9020035885        0.9910672119        2.9054993630
 C          9.0753107310        0.9026312746        1.5336225506
 C          8.0052972231        0.5861003077        0.7195665936
 C          4.3167840283        0.2736931223        0.7040902875
 C          3.2625509474       -0.0712656406       -0.1656247057
 C          1.9064233337        0.1017665605        0.1648377700
 C          0.9354038540       -0.2772989277       -0.7434396704
 C         -0.4977179448       -0.1443669277       -0.5076696710
 C         -1.3858533537       -0.8521462906       -1.3237275031
 C         -2.7460601195       -0.7704056982       -1.1263374148
 C         -3.2603307130        0.0296772887       -0.1056864230
 N         -4.6456673142        0.1131579421        0.1079259425
 C         -5.4995067187        0.5732681395       -0.9016003965
 C         -5.0271725196        1.0219109242       -2.1288646349
 C         -5.9014971749        1.4755518128       -3.1043780800
 C         -7.2607793227        1.5009367416       -2.8668641610
 C         -7.7452251133        1.0942860111       -1.6332406119
 C         -6.8768513174        0.6447801843       -0.6552459665
 O         -7.4294149703        0.3020277671        0.5526358308
 C         -6.5816692107       -0.1452590667        1.5327461757
 C         -7.1556021680       -0.5057669203        2.7384251477
 C         -6.3713206811       -1.0070186736        3.7657270786
 C         -5.0146190252       -1.1659080813        3.5684443754
 C         -4.4339832773       -0.8025369311        2.3633045441
 C         -5.1991556308       -0.2607879735        1.3375674274
 C         -2.3809201909        0.7512053428        0.7021010707
 C         -1.0201445714        0.6658387007        0.5037505538
 N          1.2930961260       -0.8313162722       -1.9298262632
 C          2.5529968932       -0.9683165303       -2.1866478451
 N          3.5550442521       -0.6108032207       -1.3762636151
 H          5.6180575046        0.2381658558        3.0975996151
 H          7.5199673007        0.8113561623        4.5299282209
 H          9.7383270451        1.2358412909        3.5432116100
 H         10.0477625622        1.0785283460        1.0989246429
 H          8.1256724254        0.5125823842       -0.3500407825
 H          4.0687184361        0.7338580764        1.6436608199
 H          1.6615667176        0.5123502579        1.1299307445
 H         -0.9786426129       -1.4756187580       -2.1033767667
 H         -3.4230828056       -1.3358367983       -1.7491832281
 H         -3.9665252911        1.0282163489       -2.3234965277
 H         -5.5054358500        1.8116382018       -4.0501810303
 H         -7.9455416527        1.8463200476       -3.6248014579
 H         -8.7982731265        1.1245244678       -1.4043943153
 H         -8.2219546042       -0.3911234821        2.8490872197
 H         -6.8268165530       -1.2817288362        4.7038286744
 H         -4.3941796177       -1.5789058192        4.3486412769
 H         -3.3761613991       -0.9530331953        2.2170597617
 H         -2.7788568650        1.3899075242        1.4768571147
 H         -0.3647884222        1.2577215328        1.1235444306
 H          2.8416831675       -1.4062834734       -3.1317379529
  58
  -101.869394911400       0.154893576374113      !
 F          5.1757475413       -2.6622531976       -1.5720163811
 B          5.0423245983       -1.2986927767       -1.5816249667
 F          5.2358678214       -0.8002218071       -2.8476575839
 O          5.9815337867       -0.6854627026       -0.6459371776
 C          5.6361472349        0.1189371852        0.3212085966
 C          6.7581306360        0.6955602664        1.0780257806
 C          6.6154440919        1.1625789103        2.3846372755
 C          7.6991098887        1.7001913557        3.0529438680
 C          8.9352769132        1.7810040019        2.4314589402
 C          9.0886523188        1.3100561577        1.1373500122
 C          8.0107111736        0.7669154910        0.4660761852
 C          4.3263653923        0.4268663770        0.6095433297
 C          3.2652635635       -0.1322964610       -0.1310494175
 C          1.9117434253        0.1227340551        0.1544178854
 C          0.9325646198       -0.4749180424       -0.6174391062
 C         -0.5000706539       -0.2966695264       -0.4051367175
 C         -1.3889779085       -0.7255356198       -1.3961725500
 C         -2.7489896409       -0.5778552270       -1.2392006222
 C         -3.2631785867       -0.0046291704       -0.0760326848
 N         -4.6493283737        0.1428832405        0.0957254526
 C         -5.4036114449        0.9086980605       -0.8010859220
 C         -4.8247530802        1.6031467803       -1.8562844278
 C         -5.6012603033        2.3578423949       -2.7218809064
 C         -6.9671567648        2.4426394146       -2.5413708932
 C         -7.5554767839        1.7874774164       -1.4707114565
 C         -6.7846258821        1.0363129267       -0.6020267662
 O         -7.4346506965        0.4547152365        0.4562780231
 C         -6.6834546932       -0.2893986492        1.3293217507
 C         -7.3553453038       -0.8822768667        2.3828909748
 C         -6.6741669257       -1.6839821284        3.2857675148
 C         -5.3229817116       -1.9063108216        3.1116437403
 C         -4.6444078644       -1.3117243309        2.0592087010
 C         -5.3035409259       -0.4721409771        1.1693607409
 C         -2.3833982300        0.4164309958        0.9212952402
 C         -1.0224489753        0.2750167952        0.7578269142
 N          1.2824498879       -1.2796939631       -1.6529916467
 C          2.5400376160       -1.4819413968       -1.8752549049
 N          3.5482718877       -0.9608539630       -1.1678105954
 H          5.6661077521        1.0816128716        2.8910418588
 H          7.5815147695        2.0542004300        4.0665597874
 H          9.7775745237        2.2045761603        2.9579190940
 H         10.0517340241        1.3653841042        0.6524287358
 H          8.1156691333        0.3953016565       -0.5413230465
 H          4.0844881651        1.1140660183        1.4004399415
 H          1.6774107686        0.7895363682        0.9668549239
 H         -0.9833050844       -1.1814879366       -2.2848969866
 H         -3.4274880472       -0.9189406563       -2.0069124744
 H         -3.7563816387        1.5640393345       -1.9991407803
 H         -5.1244676160        2.8814412303       -3.5359060917
 H         -7.5764066706        3.0232155098       -3.2156854211
 H         -8.6156690443        1.8514180196       -1.2851660908
 H         -8.4154912096       -0.7081346784        2.4738620216
 H         -7.2054338244       -2.1388756599        4.1065968297
 H         -4.7832985469       -2.5488343119        3.7900384877
 H         -3.5933420204       -1.5129039892        1.9239425432
 H         -2.7793453388        0.8640834255        1.8209554452
 H         -0.3674355060        0.6051488004        1.5487968056
 H          2.8211195492       -2.1245886611       -2.6977001593
  58
  -101.869080907500       0.111103363408173      !
 F          5.1737912567       -0.6297695619        3.0934665496
 B          5.0282797652       -1.0876115122        1.8123938854
 F          5.2173204628       -2.4483639730        1.7554837015
 O          5.9622305912       -0.4057163538        0.9178394363
 C          5.6166792171        0.1510607042       -0.2096869111
 C          6.7326772441        0.6767516692       -1.0106123506
 C          6.5644409937        1.7144221211       -1.9273212827
 C          7.6434560429        2.1819372191       -2.6533716533
 C          8.8995599130        1.6228922433       -2.4787680431
 C          9.0772744426        0.5974737305       -1.5639209147
 C          8.0041716068        0.1303537881       -0.8303247803
 C          4.3101302125        0.2435389637       -0.6319034140
 C          3.2500305620       -0.2174419915        0.1740360254
 C          1.8962434315       -0.0726063657       -0.1798522480
 C          0.9201080536       -0.5098672203        0.6949899280
 C         -0.5108956773       -0.3837591033        0.4366469391
 C         -1.0251183203       -0.2430612386       -0.8539168989
 C         -2.3813672029       -0.1030497171       -1.0564167599
 C         -3.2582311999       -0.0882542626        0.0279275575
 N         -4.6376998417        0.0831457699       -0.1805230978
 C         -5.3078774774        1.1876099296        0.3573950570
 C         -4.6546018084        2.1703557322        1.0908317170
 C         -5.3489630689        3.2563177282        1.6014532029
 C         -6.7047687911        3.3860293747        1.3781509542
 C         -7.3652117052        2.4325212188        0.6184777573
 C         -6.6767105503        1.3488240135        0.1045754445
 O         -7.3926999228        0.4714395867       -0.6694838789
 C         -6.7229807754       -0.6062711699       -1.1901866757
 C         -7.4609277627       -1.4922713044       -1.9535629260
 C         -6.8638448888       -2.6261259986       -2.4830080775
 C         -5.5313685966       -2.8765701770       -2.2241246743
 C         -4.7863630895       -1.9898176029       -1.4621512014
 C         -5.3597583004       -0.8296336133       -0.9566264910
 C         -2.7521342493       -0.2449915326        1.3179338294
 C         -1.3977980656       -0.3999147646        1.5164657777
 N          1.2660075388       -1.0612882486        1.8850769071
 C          2.5245873634       -1.1898958459        2.1551049391
 N          3.5323828415       -0.8067901863        1.3639271942
 H          5.5978980247        2.1772160784       -2.0533177593
 H          7.5061447182        2.9904215686       -3.3561406721
 H          9.7384854185        1.9914039937       -3.0500682106
 H         10.0556708129        0.1641118247       -1.4207554867
 H          8.1278090727       -0.6658458078       -0.1128670051
 H          4.0705045452        0.6782750405       -1.5856764682
 H          1.6545196779        0.4040280116       -1.1151110562
 H         -0.3657520522       -0.2581639014       -1.7080691989
 H         -2.7740843859        0.0088001920       -2.0563011307
 H         -3.5917642207        2.0945796902        1.2576564028
 H         -4.8153543258        4.0009925918        2.1715882870
 H         -7.2503216485        4.2264471240        1.7769127646
 H         -8.4189309032        2.5141864592        0.4050032736
 H         -8.5049975243       -1.2779342121       -2.1163065276
 H         -7.4462089518       -3.3097828028       -3.0800066898
 H         -5.0582510221       -3.7671273776       -2.6080054573
 H         -3.7516161269       -2.2091057197       -1.2507173812
 H         -3.4323746392       -0.2549986389        2.1564968292
 H         -0.9974439619       -0.5348534871        2.5084899587
 H          2.8061549174       -1.6398307244        3.0966871768
  58
  -101.869055169300       0.108118185545583      !
 F          5.2445819827       -2.9246430921        0.4146176276
 B          5.0524282683       -1.9753452862       -0.5618635949
 F          5.2110586847       -2.5200287961       -1.8068006796
 O          5.9732319266       -0.8563482461       -0.3732403913
 C          5.6150839332        0.3120025492        0.0834412266
 C          6.7217804892        1.2510056268        0.3219011610
 C          6.5396549253        2.6338197260        0.3067735237
 C          7.6106194498        3.4783479660        0.5298859443
 C          8.8727713739        2.9593714389        0.7716579724
 C          9.0644768811        1.5871007689        0.7794806306
 C          7.9992172431        0.7378650549        0.5515882567
 C          4.3045505061        0.6516948605        0.3289530034
 C          3.2538047388       -0.2422155025        0.0396596713
 C          1.8962042661        0.0923621975        0.1912820601
 C          0.9305897615       -0.8318283299       -0.1608987206
 C         -0.5021869069       -0.5779897530       -0.0629300653
 C         -1.3792455530       -1.3247538547       -0.8544651685
 C         -2.7356023435       -1.0889123609       -0.8201225248
 C         -3.2562213008       -0.1065872366        0.0230115019
 N         -4.6356050577        0.1525883704        0.0543219035
 C         -5.1237994887        1.4308233810       -0.2418880034
 C         -4.2952286785        2.4667926996       -0.6561073914
 C         -4.8116229916        3.7214501517       -0.9406536511
 C         -6.1665925451        3.9603797314       -0.8307895963
 C         -7.0128739842        2.9264920515       -0.4612688692
 C         -6.5027332551        1.6720110678       -0.1797183518
 O         -7.4085847023        0.6928233457        0.1355376675
 C         -6.9197518432       -0.5613938058        0.3992503464
 C         -7.8476417114       -1.5375962185        0.7138618911
 C         -7.4325432974       -2.8204506420        1.0355362222
 C         -6.0832049017       -3.1101682938        1.0630981210
 C         -5.1494183830       -2.1360126260        0.7453073587
 C         -5.5502071934       -0.8566558659        0.3799406443
 C         -2.3879462209        0.6213825535        0.8375964270
 C         -1.0301129450        0.3922341013        0.7919379367
 N          1.2906189755       -2.0401819959       -0.6614151412
 C          2.5525182766       -2.3048945055       -0.7671601563
 N          3.5504562707       -1.4785162221       -0.4364337881
 H          5.5684423428        3.0520735482        0.0921704658
 H          7.4625362413        4.5479775529        0.5091009793
 H          9.7055121645        3.6243785192        0.9458242611
 H         10.0474736328        1.1794295199        0.9616679354
 H          8.1338953197       -0.3325624122        0.5523979305
 H          4.0535851847        1.6137008063        0.7383669635
 H          1.6424676305        1.0745734831        0.5536198319
 H         -0.9668456981       -2.0770756988       -1.5076103635
 H         -3.4031968069       -1.6505072088       -1.4563713340
 H         -3.2369401447        2.2917086084       -0.7685860308
 H         -4.1417014821        4.5076834398       -1.2527865095
 H         -6.5725566126        4.9364289380       -1.0439876519
 H         -8.0792100701        3.0697533192       -0.3916895256
 H         -8.8917219662       -1.2686112703        0.7068525330
 H         -8.1631444282       -3.5767706076        1.2745048289
 H         -5.7417416019       -4.0965164744        1.3362510784
 H         -4.0986832327       -2.3737854626        0.7943607690
 H         -2.7927541682        1.3600310922        1.5136112524
 H         -0.3809534663        0.9483954376        1.4506769403
 H          2.8456615251       -3.2699348575       -1.1559141210
  58
  -101.868985792100       0.100465094047884      !
 F          5.1401585382       -0.4859939088        3.0562764412
 B          5.0278106888       -1.0716584795        1.8213598862
 F          5.2446944417       -2.4239974675        1.9025233266
 O          5.9642281583       -0.4554525816        0.8836070492
 C          5.6181628386        0.0912694815       -0.2481023810
 C          6.7283881208        0.6528036380       -1.0330532860
 C          6.6520385607        0.8239413316       -2.4150937127
 C          7.7167405505        1.3689473573       -3.1074456955
 C          8.8660630574        1.7532332409       -2.4351920861
 C          8.9549022830        1.5760709955       -1.0638263402
 C          7.8974348099        1.0243678318       -0.3672769679
 C          4.3109054324        0.1861952273       -0.6680143951
 C          3.2517404117       -0.2810034449        0.1353389474
 C          1.8978483884       -0.1472172757       -0.2238595261
 C          0.9223396151       -0.5861295533        0.6504128132
 C         -0.5088220165       -0.4524398594        0.3954718147
 C         -1.0286256839       -0.3262371032       -0.8940453784
 C         -2.3840371967       -0.1668449946       -1.0907223552
 C         -3.2519731959       -0.1153350643       -0.0008247676
 N         -4.6292803763        0.0876122351       -0.1984389714
 C         -5.2606069285        1.2189300732        0.3299175171
 C         -4.5632589257        2.2095910611        1.0100883076
 C         -5.2187912737        3.3234501688        1.5117526387
 C         -6.5790843270        3.4726028275        1.3323626858
 C         -7.2840398899        2.5099098417        0.6259918373
 C         -6.6344554865        1.3984474248        0.1210204366
 O         -7.3929295230        0.5108299819       -0.5990724054
 C         -6.7600981886       -0.5925316832       -1.1129096986
 C         -7.5402186915       -1.4872379845       -1.8221176982
 C         -6.9809701433       -2.6443081329       -2.3427897324
 C         -5.6427254338       -2.9074382427       -2.1311401065
 C         -4.8554304226       -2.0126868012       -1.4226761996
 C         -5.3924798545       -0.8323539288       -0.9242929863
 C         -2.7406078892       -0.2607659198        1.2883205727
 C         -1.3883513165       -0.4375895778        1.4811422182
 N          1.2677106974       -1.1403885653        1.8391923241
 C          2.5261652369       -1.2583974808        2.1142079801
 N          3.5337141029       -0.8621020167        1.3291315824
 H          5.7731407624        0.5065158262       -2.9547902635
 H          7.6520119169        1.4927792377       -4.1784608774
 H          9.6932182170        2.1814030030       -2.9814109629
 H          9.8519642609        1.8662590766       -0.5377680169
 H          7.9529402367        0.8791790863        0.7002386728
 H          4.0662661022        0.6687822717       -1.5971293168
 H          1.6550373673        0.3259784140       -1.1606178479
 H         -0.3741403651       -0.3664273964       -1.7512858067
 H         -2.7815329061       -0.0646092468       -2.0897499652
 H         -3.4968001888        2.1169801971        1.1423954147
 H         -4.6514928438        4.0741035822        2.0400974119
 H         -7.0945293243        4.3346863456        1.7249134816
 H         -8.3432517474        2.6053945004        0.4488085122
 H         -8.5868053116       -1.2618547965       -1.9488683698
 H         -7.5971281267       -3.3359682542       -2.8950509552
 H         -5.1982553893       -3.8152190269       -2.5088290085
 H         -3.8161738275       -2.2416233630       -1.2465888113
 H         -3.4156785266       -0.2412658644        2.1309239617
 H         -0.9837113712       -0.5627584165        2.4726946566
 H          2.8080078471       -1.7066520983        3.0564962395
  58
  -101.868947747000       9.650079201300364E-002 !
 F          5.2539176249       -3.0174833753        0.3870084968
 B          5.0545642750       -1.9961540516       -0.5072211767
 F          5.2039531291       -2.4427690565       -1.7956631615
 O          5.9787060039       -0.8952529993       -0.2439320762
 C          5.6144084313        0.2950734318        0.1444054382
 C          6.7154505470        1.2514146822        0.3373083381
 C          6.5955762402        2.3695620354        1.1626156457
 C          7.6539932005        3.2472856472        1.3020255958
 C          8.8419316759        3.0253172899        0.6235090832
 C          8.9739355450        1.9107504505       -0.1890084092
 C          7.9218050884        1.0267893897       -0.3280562742
 C          4.2985943185        0.6552894957        0.3244214520
 C          3.2519859368       -0.2536077608        0.0708388170
 C          1.8931086246        0.0843986212        0.2025307412
 C          0.9312021643       -0.8597662996       -0.1023812307
 C         -0.5015255150       -0.6000093547       -0.0209870854
 C         -1.3760165091       -1.3581460832       -0.8040115661
 C         -2.7307394715       -1.1110583373       -0.7878843959
 C         -3.2523668795       -0.1088621714        0.0311952147
 N         -4.6301276501        0.1593936674        0.0437002465
 C         -5.1090274573        1.4363513091       -0.2734900516
 C         -4.2705275325        2.4677510445       -0.6792914283
 C         -4.7784566101        3.7214732079       -0.9826210369
 C         -6.1346327269        3.9643036355       -0.9002848994
 C         -6.9901464232        2.9346019566       -0.5406761679
 C         -6.4884837941        1.6808820530       -0.2410423789
 O         -7.4032502236        0.7058638005        0.0612507480
 C         -6.9226232753       -0.5449231665        0.3541045629
 C         -7.8585733662       -1.5148902212        0.6641721229
 C         -7.4524312290       -2.7929151565        1.0150535791
 C         -6.1044105156       -3.0833828101        1.0776237013
 C         -5.1626001378       -2.1155504870        0.7644034809
 C         -5.5535720741       -0.8423099610        0.3682299030
 C         -2.3868504371        0.6275822628        0.8410654306
 C         -1.0300304960        0.3900443277        0.8100768436
 N          1.2944010948       -2.0926661887       -0.5357095508
 C          2.5573725068       -2.3576869205       -0.6281855118
 N          3.5526218948       -1.5109637330       -0.3429897303
 H          5.6866327196        2.5416659701        1.7178335246
 H          7.5540230302        4.1087320348        1.9457247564
 H          9.6632998222        3.7179940139        0.7314089172
 H          9.8991413541        1.7320208400       -0.7161503661
 H          8.0107228696        0.1543930094       -0.9564975817
 H          4.0375713938        1.6552808854        0.6207932562
 H          1.6347447198        1.0829937951        0.5132690891
 H         -0.9629972122       -2.1257057579       -1.4388179313
 H         -3.3965619810       -1.6803682066       -1.4190911493
 H         -3.2109050125        2.2897312469       -0.7720472500
 H         -4.1007170252        4.5040376060       -1.2870934548
 H         -6.5342457818        4.9395707445       -1.1285583813
 H         -8.0574191306        3.0801702291       -0.4938829868
 H         -8.9018786852       -1.2449294400        0.6301437935
 H         -8.1891334967       -3.5447556130        1.2494053629
 H         -5.7702997408       -4.0652284281        1.3750108233
 H         -4.1134939781       -2.3537999270        0.8394369507
 H         -2.7925993609        1.3798533948        1.5012555199
 H         -0.3818119999        0.9543625029        1.4629158778
 H          2.8542848077       -3.3409896730       -0.9647231162
  58
  -101.868735945100       7.712469577868268E-002 !
 F          5.2851623841       -2.8770873003        0.6547447383
 B          5.0643231915       -2.0157380804       -0.3947197604
 F          5.2189772345       -2.6578259531       -1.5921431695
 O          5.9665244248       -0.8680416297       -0.3117139861
 C          5.5960739118        0.3177707983        0.0864816166
 C          6.6859542350        1.2946228953        0.2311910106
 C          7.9823730673        0.8276382331        0.4521659171
 C          9.0317901507        1.7149511201        0.5916810549
 C          8.8048326025        3.0789400402        0.5023886343
 C          7.5231495702        3.5512895952        0.2677947109
 C          6.4681061070        2.6689314641        0.1330908528
 C          4.2857142466        0.6445668055        0.3496373260
 C          3.2461480591       -0.2806782992        0.1271746139
 C          1.8857727815        0.0426185521        0.2761015315
 C          0.9301243368       -0.9072415575       -0.0311955723
 C         -0.5035741619       -0.6526134092        0.0487391878
 C         -1.3721862213       -1.3967585070       -0.7538638456
 C         -2.7250998320       -1.1390843296       -0.7553897465
 C         -3.2505764237       -0.1404147198        0.0654257511
 N         -4.6232789368        0.1524291366        0.0487369147
 C         -5.0687088164        1.4405121125       -0.2730278514
 C         -4.1996285465        2.4591068000       -0.6454999737
 C         -4.6748398032        3.7241890247       -0.9544682295
 C         -6.0282119860        3.9915901861       -0.9118111091
 C         -6.9129363224        2.9754238286       -0.5859922584
 C         -6.4437104421        1.7106330826       -0.2802383597
 O         -7.3850310969        0.7507726702       -0.0132992203
 C         -6.9369847849       -0.5131917122        0.2746889583
 C         -7.9000545076       -1.4701900643        0.5383931747
 C         -7.5287900690       -2.7609054529        0.8814737788
 C         -6.1890237767       -3.0774414973        0.9830151952
 C         -5.2200078033       -2.1226983269        0.7159240419
 C         -5.5747313463       -0.8364612141        0.3277724313
 C         -2.3924994236        0.5747820619        0.9019970664
 C         -1.0372160968        0.3273824450        0.8883536869
 N          1.3007208017       -2.1333794348       -0.4766750544
 C          2.5656080810       -2.3890601006       -0.5728394925
 N          3.5551746670       -1.5354448866       -0.2895196529
 H          8.1441940903       -0.2369866782        0.5179306832
 H         10.0300194286        1.3434180807        0.7681606577
 H          9.6250324963        3.7733893728        0.6074669142
 H          7.3469485980        4.6135422502        0.1838895127
 H          5.4802933675        3.0493432041       -0.0760989855
 H          4.0249853633        1.6227396890        0.7119366155
 H          1.6203791333        1.0373403065        0.5932812786
 H         -0.9554191106       -2.1598391624       -1.3916670943
 H         -3.3852090448       -1.6944650804       -1.4047611475
 H         -3.1408909114        2.2628565507       -0.7060762402
 H         -3.9736982920        4.4962506214       -1.2315194228
 H         -6.4024696888        4.9762161084       -1.1427501151
 H         -7.9782298713        3.1406537113       -0.5697239926
 H         -8.9365954706       -1.1800379954        0.4758231983
 H         -8.2863484621       -3.5020496052        1.0807589949
 H         -5.8828988998       -4.0698611759        1.2753683440
 H         -4.1783514899       -2.3811386805        0.8217675826
 H         -2.8029292504        1.3208664039        1.5662970674
 H         -0.3944450914        0.8762442066        1.5595521751
 H          2.8683560850       -3.3681200091       -0.9165034081
