72
 energy: -125.229074815331 gnorm: 0.000086901237 xtb: 6.7.1 (edcfbbe)
N           -1.95993820188911       -8.23612741028568        0.16763891411074
C           -1.42800087125699       -7.22000587782618        0.12144854870239
C           -0.72683739802285       -5.99487247343785        0.06164412317416
N           -1.40692644832468       -4.85730013424493        0.11336363766506
C           -0.72413078762417       -3.71325487349151        0.05755602392170
C           -1.42914214133362       -2.47238905569088        0.11129816452943
C           -2.83030294959449       -2.46377342336649        0.18707335105124
C           -3.53481591884904       -1.29511192820974        0.25647023286665
C           -2.85791607009339       -0.05931284735729        0.26724183836546
N           -3.55465883043107        1.12101375014308        0.34083397254210
C           -2.94451465577870        2.39389209942612        0.26188070134971
C           -1.96522575327483        2.79321379488224        1.16609777073363
C           -1.39862316470398        4.05089900904420        1.06697228584688
C           -1.81705999689515        4.92964630941274        0.07970702584315
C           -2.82105539655389        4.56116349578365       -0.79639206726190
C           -3.38883493330096        3.29986831305658       -0.69945391849291
S           -4.72157886149339        2.83442808624215       -1.77808184981748
C           -5.65016350031752        1.92880104473936       -0.56626691925867
C           -7.03498223085946        1.99426724698229       -0.55532647429057
C           -7.74428554472589        1.32391561122409        0.42440958582640
C           -7.07021409767922        0.62032139585329        1.41089961873362
C           -5.68849776773629        0.55531406839157        1.40127500431179
C           -4.96707871988667        1.17728944860107        0.38770687962302
C           -1.46694972483274       -0.06611282644494        0.13173650191035
C           -0.73025957632218       -1.24328883579599        0.06098708060950
C            0.72349535514258       -1.24879288300838       -0.06421554496104
C            1.46881445700782       -0.07726843995916       -0.13796503433888
C            2.86015726856131       -0.08092691319892       -0.26982033817094
N            3.56521215629078        1.09442466028470       -0.34462446319376
C            2.96258436871107        2.37140268476276       -0.27434005167629
C            1.99189478822135        2.77320348824262       -1.18671306427341
C            1.43312474518335        4.03508499322928       -1.09692825245001
C            1.85099051498833        4.91543328972393       -0.11084111767042
C            2.84606112707535        4.54382434890255        0.77408320090412
C            3.40581698793698        3.27824235676930        0.68666133821882
S            4.72658701663236        2.80777312062291        1.77779239163221
C            5.65867846928496        1.89123222136591        0.57695004726325
C            7.04396028593688        1.94699779726385        0.57753554129010
C            7.75683140507412        1.26877030559857       -0.39414146376531
C            7.08617283639212        0.56719331902753       -1.38435966422500
C            5.70399087401024        0.51177233827127       -1.38616368280660
C            4.97837017741652        1.14143702232297       -0.38038719631125
C            3.52800690409457       -1.32155411033472       -0.25402045397466
C            2.81482123336133       -2.48487282813191       -0.18298886387473
C            1.41352980481867       -2.48309285514857       -0.10945671246426
C            0.69944952998048       -3.71863021306313       -0.05246429714788
N            1.37386081274894       -4.86779132921235       -0.10482310732487
C            0.68546042848702       -6.00021542817305       -0.04988216081320
C            1.37761637366760       -7.23063620516148       -0.10625152852238
N            1.90213118443801       -8.25070458405750       -0.14960803901542
H           -3.34193604491576       -3.41372035650696        0.18387427216337
H           -4.61174290710852       -1.32502150473280        0.28184042151358
H           -1.65588801988370        2.11192070630123        1.94450393315423
H           -0.63277538563104        4.34556821363310        1.76710573662309
H           -1.37684086013782        5.91114131346906        0.00365615266333
H           -3.17444024243120        5.24074749646054       -1.55633623812915
H           -7.54236638026993        2.56902338212148       -1.31468438669153
H           -8.82233236646100        1.36704452831133        0.42845728126903
H           -7.62096384971540        0.12206109146150        2.19376938768348
H           -5.15813107696540        0.01820125437542        2.17326726316975
H           -0.96061478151103        0.88075032602075        0.06323848938978
H            0.96924247337852        0.87351915445263       -0.07408759933427
H            1.68285877230251        2.09039984633993       -1.96390606658776
H            0.67388191094588        4.33175106492122       -1.80339805434901
H            1.41714481102437        5.90031779989700       -0.04231751549007
H            3.19847617460191        5.22420048836998        1.53376201049414
H            7.54892173462173        2.52052692079100        1.33943616895214
H            8.83515136891939        1.30427011627991       -0.38910779515012
H            7.63999680031318        0.06299434877069       -2.16123319792443
H            5.17650228202482       -0.02348361872325       -2.16139555395423
H            4.60471803510994       -1.35941601806875       -0.27686215727600
H            3.31953029164800       -3.43850822544109       -0.17624924862900
