72
 energy: -125.175407455701 gnorm: 0.000075551607 xtb: 6.7.1 (edcfbbe)
N            0.80666029886908       -8.44045091019489        0.08211892644953
C            0.98781327462032       -7.30496761062018        0.06731958844035
C            1.24020372407622       -5.91897342252566        0.04980856436608
N            0.22581801044523       -5.06755234753136        0.01451314202781
C            0.50994801401684       -3.73728720455248        0.00176458642625
C           -0.55393434309799       -2.79938805820424       -0.01841331678097
C           -1.88849535979759       -3.25582782844539       -0.03309567253721
C           -2.93760280857646       -2.38037229792087       -0.04230960753442
C           -2.67641966212059       -1.00027687582507       -0.02240405399491
N           -3.76633877574787       -0.07368200554456       -0.01932283474726
C           -4.42643472497534        0.12828005729708        1.18052257717799
C           -3.97449767816290       -0.52167355175501        2.33832187914827
C           -4.61294541500452       -0.36480777184815        3.55030448612058
C           -5.72799844753146        0.45525645300875        3.65888798675744
C           -6.17933620896662        1.12403008566342        2.53987465819213
C           -5.53984412026890        0.97139826345645        1.31461280208015
S           -6.20203416686984        1.90741187818921       -0.01907954102904
C           -5.12508004715332        1.47977149252380       -1.34323061277446
C           -5.38323781811715        2.10302609986135       -2.55939619644118
C           -4.62275237325260        1.81709241867312       -3.67424060939061
C           -3.60087992509358        0.88293863889972       -3.57098491892952
C           -3.33771771583813        0.26255633062559       -2.36802635146688
C           -4.07926201629652        0.55321957061431       -1.21331452125336
C           -1.38164463041421       -0.52861776644875       -0.01015143551538
C           -0.28744161529096       -1.40121791558016       -0.02169888579852
C            1.07948392717173       -0.94419804693974       -0.04803147571229
C            1.41533697906384        0.41007648468802       -0.12417714073357
C            2.73207820689864        0.85013946504731       -0.18923552403256
N            3.02143864294865        2.19940879150668       -0.28978208088148
C            2.01982831600807        3.19033123673549       -0.33693653064452
C            1.01466944286528        3.16423718490362       -1.30155672973150
C            0.02998997064884        4.13448472072165       -1.30990224430698
C            0.04880685355986        5.15861582390738       -0.37390089484870
C            1.07373137580167        5.23041113386648        0.55076468902901
C            2.06028667183323        4.25473295338932        0.56386785901709
S            3.39691090792728        4.35998953181249        1.72439537833831
C            4.65639939579220        3.71730472189330        0.65533169135782
C            5.94351463484908        4.22994465641289        0.71922071505943
C            6.91501545087228        3.75410161380036       -0.14127798047754
C            6.59126491980136        2.79296369848567       -1.08761735742498
C            5.30882848214924        2.28080232584430       -1.15277897858344
C            4.33460192489099        2.70939871988203       -0.25449865565371
C            3.76268258076375       -0.10652448163774       -0.07175397428546
C            3.45784693748042       -1.43666576559351        0.00578000520072
C            2.13022977687055       -1.89286028508734       -0.01446044926197
C            1.85451412760009       -3.29557238802109        0.01706384772745
N            2.87095165349949       -4.16299285508685        0.04923259858688
C            2.58282053113787       -5.48139847054698        0.06892444078175
C            3.60966696363815       -6.42704223610312        0.10522865252478
N            4.43708012526108       -7.23168724467881        0.13601967547257
H           -2.05057881228550       -4.32257736216715       -0.04049279508276
H           -3.95759746100674       -2.73253303574474       -0.05988110817337
H           -3.10633923846627       -1.15751611975370        2.27833521552394
H           -4.23496179350345       -0.88609638231417        4.41597496282191
H           -6.23218551831692        0.57669610133379        4.60405451565019
H           -7.03562846763654        1.77873085221304        2.59467567967781
H           -6.19550332294103        2.81170344683983       -2.61071895444581
H           -4.82916410629407        2.30661103821390       -4.61237971189665
H           -3.00521175140656        0.63110670353113       -4.43461552237558
H           -2.54685219419515       -0.46743282083687       -2.31369421099713
H           -1.23220807960214        0.53915910792221        0.00976543676567
H            0.62785142659704        1.14256671549206       -0.12067610370869
H            1.01645694981424        2.37677290447543       -2.04017504706207
H           -0.75082551491798        4.09331867463832       -2.05385788766128
H           -0.72295808732382        5.91235523653913       -0.37717218198221
H            1.12133610190054        6.03521795066973        1.26768909325158
H            6.16956391315757        4.99778612110894        1.44279111090328
H            7.91810526347626        4.14727864129985       -0.08680223300432
H            7.33913859404382        2.44319763157927       -1.78245850096558
H            5.05012006831051        1.54642598728621       -1.90037943602239
H            4.79345840194956        0.20341934637137       -0.02135899809242
H            4.24092443210233       -2.17539087436308        0.08454861211250
