  43
  -64.8915353572000        1.00000000000000      !
 C         -2.3027332656        3.6603592714        0.1284103936
 C         -0.9178686011        3.6815664074        0.1460149115
 C         -0.2142682351        2.4905597804        0.1114126255
 C         -0.8711356476        1.2712086947        0.0592588423
 C         -2.2674789148        1.2537026091        0.0432232742
 C         -2.9739940722        2.4555457944        0.0784119652
 N         -2.9477833602        0.0584503647       -0.0080517275
 C         -2.3226411111       -1.1673699257       -0.0268335326
 C         -3.0829873067       -2.3359636158       -0.0541533629
 C         -2.4672167666       -3.5710488034       -0.0733019920
 C         -1.0847697165       -3.6560362256       -0.0659050083
 C         -0.3273703640       -2.4981768038       -0.0391894648
 C         -0.9282643185       -1.2493375162       -0.0190847867
 C         -0.0651533049       -0.0081007023        0.0093569192
 C          0.9152133676       -0.0652551942        1.1642283850
 C          0.6405395628       -0.1171427763        2.5126014269
 C          1.7039548673       -0.1634486483        3.4043286858
 C          3.0133612471       -0.1557019941        2.9484935436
 C          3.2942514892       -0.1039221345        1.5922878530
 C          2.2374372143       -0.0599204030        0.6982071262
 C          2.2141769575       -0.0063108708       -0.7557533354
 C          3.2413888650        0.0217074885       -1.6842264837
 C          2.9167325776        0.0730206118       -3.0305762890
 C          1.5932153457        0.0952068651       -3.4435543645
 C          0.5593004474        0.0679104149       -2.5169870554
 C          0.8776662366        0.0174626157       -1.1782291894
 H         -2.8613102153        4.5841078801        0.1535509079
 H         -0.3877245191        4.6206231951        0.1850803767
 H          0.8657945671        2.5028332657        0.1237848502
 H         -4.0548271327        2.4303327052        0.0648389486
 H         -3.9556808179        0.0815186088       -0.0119976237
 H         -4.1616988698       -2.2615942030       -0.0595754275
 H         -3.0677336280       -4.4682174237       -0.0936229273
 H         -0.5986418604       -4.6193929524       -0.0805695710
 H          0.7510439241       -2.5595692674       -0.0335652046
 H         -0.3796430914       -0.1225700447        2.8684648390
 H          1.5092664326       -0.2054519237        4.4661484743
 H          3.8250809336       -0.1909805534        3.6606286290
 H          4.3159488367       -0.0987371846        1.2422160739
 H          4.2739303459        0.0052134996       -1.3678367170
 H          3.7047479177        0.0963936536       -3.7692255123
 H          1.3642562807        0.1349464452       -4.4983311738
 H         -0.4719898045        0.0862890778       -2.8386842234
