83
 energy: -135.738437567194 gnorm: 0.000095024132 xtb: 6.7.1 (edcfbbe)
O           -0.70600869389601       -2.77445550425773        2.22879882332318
P           -0.41377989120741       -2.52572612218762        0.80222451836599
C            0.50435365002158       -3.91224222293990        0.05236242378125
C            1.08099850537246       -3.84727916168534       -1.21046719545022
C            1.72517802483568       -4.95491126083685       -1.72937737927198
C            1.79136289490825       -6.13044342840575       -0.99639390632735
C            1.21457838331696       -6.19880710865650        0.26094461447257
C            0.56967395453501       -5.09072944252342        0.78247878375602
C           -1.89798312369253       -2.44506563765837       -0.25077235068132
C           -3.07774455408909       -2.94098802163324        0.28553182672062
C           -4.22209658208014       -3.00011041927268       -0.48935102050629
C           -4.18382190154861       -2.57140549664874       -1.80615434738546
C           -3.00522901235915       -2.07518682282409       -2.34333565208127
C           -1.86095552137839       -2.01405125200127       -1.57015862137486
C            0.64026561807958       -1.06431788995114        0.50886264347119
C            2.00235490104593       -1.30587736788908        0.61278092816552
C            2.94617403147797       -0.30498742887905        0.39434018899502
N            4.25684209055513       -0.52477104380904        0.48902684682880
C            5.13689876288445        0.44194916731157        0.26290382389011
C            4.66332549179363        1.76198185165105       -0.09246362279943
N            3.35877309099267        1.98167625528716       -0.19143516453180
C            2.47199306425000        1.01295073796373        0.03630711174791
C            1.09915207321821        1.23005998727458       -0.04494237484539
C            0.17242619254974        0.22124988478187        0.20307669553453
C           -1.25680749023198        0.53591683723149        0.17361618940890
C           -1.80235432744932        1.31964965668493       -0.84471414954380
C           -3.14395638106970        1.62730524884691       -0.85948585661469
C           -3.98780655864572        1.16746223068420        0.15731865814044
N           -5.34452932779361        1.47948013095377        0.14749790657734
C           -6.03218340269010        1.60387162921814       -1.06482823208296
C           -7.02268870985879        2.57606147369107       -1.21826028281095
C           -7.69804827466222        2.69308734186848       -2.41764103629399
C           -7.39780446527078        1.85118288899667       -3.47758750283334
C           -6.41479795801534        0.88451082314664       -3.32900463072467
C           -5.73528201428564        0.75578725759849       -2.13348532977978
C           -6.03087082318193        1.68119507859054        1.35158225423134
C           -5.42143676323193        2.35862277632684        2.40926714278872
C           -6.10962348488014        2.56152852702818        3.58964629174187
C           -7.40862172963901        2.09843899762176        3.73349407048311
C           -8.01800245887571        1.42615654296025        2.68516413205306
C           -7.33813530164057        1.21502766376684        1.50146730326432
C           -3.44109654007390        0.39781781962293        1.18827200301605
C           -2.09849617879154        0.08874903802421        1.19248924625201
C            5.62157787794508        2.75755939266778       -0.32269352443375
S            5.25484244017217        4.40379499537048       -0.75603761123727
C            6.94341674039634        4.78096797607456       -0.80681688461026
C            7.74038388754849        3.72729212981416       -0.51450845002904
C            7.00492803863131        2.54631849066385       -0.23087838756785
C            7.46745492127371        1.25568009023448        0.11107098487850
C            8.79673854263588        0.78027143894333        0.26248041454414
C            8.84717628958526       -0.52982424611124        0.59697617357556
S            7.28700727797442       -1.26520759298302        0.74882838413837
C            6.52178515422693        0.24700811690528        0.34642733595451
H            1.04036734874355       -2.92707302510864       -1.77471743529449
H            2.17989262250340       -4.90156578623458       -2.70783340032267
H            2.29671526035903       -6.99261649506583       -1.40604495049507
H            1.26743048283594       -7.11225967671460        0.83511271689610
H            0.11905706971803       -5.11604139264245        1.76522612437048
H           -3.07896236608169       -3.26898623411738        1.31591649993154
H           -5.13996415937801       -3.38468375233031       -0.06958027579827
H           -5.07360403448737       -2.62773907114750       -2.41595792169078
H           -2.97699468186227       -1.73752631741432       -3.36920054984875
H           -0.94286341889815       -1.62219626909423       -1.98240735942187
H            2.35924703840222       -2.29515076590934        0.86633099773836
H            0.76354829067719        2.23077120751981       -0.27104170168533
H           -1.16327874890247        1.67905243569191       -1.63742017438875
H           -3.54753559607639        2.24149070595100       -1.65037252776830
H           -7.24641529238844        3.24246600813757       -0.39850740623793
H           -8.45753897920383        3.45265479743532       -2.52841896381030
H           -7.92661995422546        1.94794570616542       -4.41353264147656
H           -6.18080084111364        0.22171523268976       -4.14866512411177
H           -4.98005818207626       -0.00570891542872       -2.00870601868386
H           -4.41494520053598        2.73245569143572        2.29219221237155
H           -5.63113656823922        3.09215479898047        4.39930143349282
H           -7.94260697483497        2.26088622827898        4.65731989458393
H           -9.02685395831940        1.05665690185082        2.79304787823919
H           -7.80752570610864        0.67970560242008        0.68960230270091
H           -4.07814557333775        0.03260804128265        1.97953716947749
H           -1.68587072096745       -0.49086391475612        2.00524112748045
H            7.23790657665483        5.78161830030433       -1.05558803860808
H            8.81385260141431        3.77699912266837       -0.49730928238798
H            9.66719357337292        1.39563326525336        0.12583613503734
H            9.71675127673389       -1.13278426396875        0.77060685393424
