83
 energy: -135.784316145474 gnorm: 0.000055348967 xtb: 6.7.1 (edcfbbe)
O           -0.66306315182036       -2.69236732692717        2.28811276460195
P           -0.39844889225838       -2.50813195317217        0.84794638589628
C            0.51478683457033       -3.91869054973301        0.13938872878114
C            1.07902536500907       -3.89831925171021       -1.13068823998675
C            1.71615050629639       -5.02458100768361       -1.61716553424702
C            1.78676956564535       -6.17437229280584       -0.84474806113371
C            1.22145299533034       -6.19846268122864        0.41942454795953
C            0.58377556666049       -5.07169610537502        0.90895424053504
C           -1.89237296293257       -2.45886129846608       -0.18935293539130
C           -3.06523606648118       -2.93516937257995        0.37875261775496
C           -4.21682737161938       -3.02693323504558       -0.38204848977858
C           -4.19202115103301       -2.65095844426603       -1.71509558628468
C           -3.02030614173007       -2.17328218153282       -2.28324954729824
C           -1.86854299781794       -2.08001109385527       -1.52496615762691
C            0.67033446683541       -1.06074117037183        0.49366885028155
C            2.01251279198884       -1.30104914496450        0.61605640327010
C            2.95720113693723       -0.28600616898493        0.36320880840901
N            4.26578903534192       -0.54084920454948        0.48641208524227
C            5.10968746311910        0.44261867344890        0.22615689876128
C            4.63473161314826        1.74703169527866       -0.18127484808845
N            3.34428488843976        1.99670507210871       -0.31144058725122
C            2.48586276321302        1.00098127018635       -0.04408681787890
C            1.10062695142689        1.22511737845225       -0.14157848049662
C            0.19288310134504        0.23148902396735        0.14337678370272
C           -1.24208711153958        0.52565086647507        0.11782143015611
C           -1.81350248988570        1.24296577105133       -0.93248950445010
C           -3.15673021172958        1.54660911116418       -0.93354000404064
C           -3.97463305768603        1.15573889807703        0.13069207745793
N           -5.32821101713896        1.47765971947121        0.14445755748929
C           -6.05462219314010        1.55498224228928       -1.05322620123246
C           -7.02198627722653        2.54351600287284       -1.22986029123302
C           -7.74208452085412        2.60866830500330       -2.40778304725549
C           -7.50520179525190        1.69994912366283       -3.42653197444079
C           -6.54230466399878        0.71801012087761       -3.25607734583557
C           -5.82293126534227        0.63938754437199       -2.07894974214960
C           -5.97901471170701        1.75278286165401        1.35774353595329
C           -5.34254348061039        2.49449951135564        2.35229148739950
C           -5.99480551000495        2.76986489164656        3.53904306797606
C           -7.28875374441715        2.32091320132266        3.74939222478652
C           -7.92696564286703        1.58770288964765        2.76201287779615
C           -7.27932716781017        1.29969588361285        1.57563282871425
C           -3.40020687523568        0.44623421780427        1.18835822621515
C           -2.05763512209846        0.13513907236353        1.17832023078018
C            5.59933180875861        2.75212974421101       -0.44159092981051
S            5.23798296930902        4.37179619246899       -0.93497689091250
C            6.91964381574355        4.74847163369408       -0.98055148007152
C            7.71634116548983        3.70487140720981       -0.63993236499888
C            6.97150765840637        2.54093379353793       -0.32451908444549
C            7.43966152113284        1.25344774568507        0.07541342368162
C            8.77129854599817        0.80492824206585        0.26222549936719
C            8.82677107550882       -0.49396930522319        0.64822453431951
S            7.27532500883212       -1.23142436136933        0.80344559118001
C            6.50944988413967        0.24935838159404        0.33566448690372
H            1.03275976088236       -2.99863772205592       -1.72684138668687
H            2.16079459008776       -5.00628721617761       -2.60141614983972
H            2.28582330373472       -7.05141351040981       -1.22957074022621
H            1.27707972489030       -7.09206387765240        1.02358342395521
H            0.14129984481158       -5.06238799550692        1.89560743511960
H           -3.05617977141964       -3.22209139594580        1.42122801124687
H           -5.13030620281329       -3.39456508458569        0.06172184423641
H           -5.08761989895225       -2.73279092229447       -2.31326797644812
H           -3.00493774894990       -1.87374381935296       -3.32106076448377
H           -0.95603161107696       -1.70199966949277       -1.96204661625907
H            2.37696949050291       -2.27919997692824        0.90071687557429
H            0.76824347733003        2.21593122565604       -0.41249300817273
H           -1.19560113885139        1.55351530785755       -1.76222895753943
H           -3.58203969345361        2.10333928695826       -1.75511030874000
H           -7.20250601737389        3.25821992745574       -0.44014817833099
H           -8.48735936335157        3.38059675902366       -2.53350642911311
H           -8.06757760619575        1.75628057357953       -4.34647608329622
H           -6.35515382489147        0.00313646181021       -4.04408553651144
H           -5.07861799548915       -0.13073307986807       -1.93976821650470
H           -4.33725774949374        2.85421870279666        2.18703149404781
H           -5.49133070866265        3.34737612659222        4.30071501696975
H           -7.79633028118355        2.54196709374683        4.67628308675742
H           -8.93421238747658        1.23029206314668        2.91912286056373
H           -7.77551853689416        0.72227943069406        0.80925497283034
H           -4.01549277949688        0.13666203306265        2.01982982494731
H           -1.62627488522002       -0.39376370501146        2.01603032123722
H            7.22058020104335        5.73861162339484       -1.26191147877813
H            8.78911590691221        3.75410595231606       -0.61211360401819
H            9.63706523834392        1.42362199739670        0.11506129803906
H            9.70077128611453       -1.07923930492659        0.85683074299228
