83
 energy: -135.784091792982 gnorm: 0.000036593514 xtb: 6.7.1 (edcfbbe)
O            0.19676713729949       -2.82184095110173       -2.10188423025975
P            0.55027267438427       -2.48276565039387       -0.70971223163917
C           -0.85674243005898       -2.43468235844499        0.44214420417742
C           -0.78770140778345       -1.83673750573852        1.69356981503487
C           -1.86036129512466       -1.93362290983709        2.56003324523821
C           -2.99336940770097       -2.64127378929436        2.18947213455376
C           -3.05769763337864       -3.24940034701729        0.94617145408971
C           -1.99020878583540       -3.14399682338433        0.07172510214392
C            1.61966965885430       -3.75354735287357        0.04241628448679
C            1.83326350321467       -4.91504784025051       -0.68651679204818
C            2.60621126711256       -5.93513902049814       -0.15916439880629
C            3.16222546693316       -5.79563102163068        1.10161381813922
C            2.94515195472604       -4.63812742819291        1.83447509685857
C            2.17325112168068       -3.61833990226574        1.31024966426930
C            1.51892116859026       -0.93346880985018       -0.55373496655776
C            2.87314255344146       -1.08142330356485       -0.68615756154669
C            3.74002627183708        0.02240245959325       -0.55501243380193
N            5.06204130639346       -0.14456530063157       -0.68218604142398
C            5.83247133818991        0.91867954326157       -0.52970768333683
C            5.26544634305673        2.21603238431383       -0.23303577392641
N            3.96140034147120        2.38019880323073       -0.10114646474773
C            3.17746545931133        1.30284058712571       -0.25804944585700
C            1.78071529872712        1.43018559261163       -0.15153022920812
C            0.94789212806619        0.34775919378989       -0.31942766642565
C           -0.50397525982805        0.53640690468425       -0.28695117524912
C           -1.30979889282012       -0.00962859543854       -1.28491842177952
C           -2.66833295168786        0.22120451548957       -1.30309832245648
C           -3.27497029649441        0.99001708447440       -0.30584179307727
N           -4.64195736181949        1.23814952295595       -0.31894375003426
C           -5.54525297454884        0.31960992126148       -0.87331798976969
C           -6.65844251291650        0.77204634371173       -1.58147757884505
C           -7.56108440785403       -0.13066104318782       -2.11053382341468
C           -7.36543811290515       -1.49302642343019       -1.95163324779544
C           -6.25786090380717       -1.94666001651530       -1.25354117621895
C           -5.35524887715055       -1.05194880489610       -0.71115076033887
C           -5.14482111464503        2.43944458410860        0.21287736429885
C           -4.50895360229675        3.65204093768058       -0.04827126854085
C           -5.01296088938794        4.82737678760156        0.47595816886603
C           -6.15664025226663        4.81251847672127        1.25827733246852
C           -6.79570551854101        3.61003090766182        1.51440006988542
C           -6.29509445703963        2.42898124025621        0.99981569727934
C           -2.46810077375144        1.52304875786835        0.70512232281844
C           -1.10762932652449        1.31376982237113        0.70149751049952
C            6.15496677650430        3.30936086013620       -0.08318174394934
S            5.67970693576149        4.93670449299845        0.26952363340772
C            7.32936504508668        5.43721901455115        0.25309482891275
C            8.19766722774850        4.42791606040308       -0.00554535066399
C            7.53787413033157        3.18903223251304       -0.20299352706970
C            8.09681456181506        1.90818571217154       -0.49215459043436
C            9.45669582689464        1.54256772647196       -0.65533249571910
C            9.60504128349153        0.22142579066202       -0.92289193893969
S            8.11113098689573       -0.63826996220793       -0.98920894346263
C            7.24144769975880        0.81931604153900       -0.64614979432092
H            0.09546843189458       -1.28419826998075        1.97930212486290
H           -1.81218428718352       -1.45865764694460        3.52879856023635
H           -3.82754383583696       -2.71831939683090        2.87106857464073
H           -3.93590174315696       -3.80994162087944        0.66144401461492
H           -2.01997780571291       -3.59956996425429       -0.90865195834855
H            1.39198560357142       -4.99694819399286       -1.67032873224322
H            2.77425535331521       -6.83553860474064       -0.73160087158492
H            3.76698089388661       -6.58897327902436        1.51538104748271
H            3.38019890801191       -4.53083040174421        2.81732999951586
H            2.00853416489467       -2.71302445191598        1.87574604805668
H            3.30931935259441       -2.05184767596818       -0.88138881311879
H            1.37660670490200        2.41434690725753        0.03230803709799
H           -0.85702623733281       -0.57848253652093       -2.08359244234676
H           -3.26693629953588       -0.18291812185713       -2.10561192807722
H           -6.80906801705701        1.83344343888539       -1.71495695763588
H           -8.41868887026040        0.23301498121391       -2.65758521707475
H           -8.07017832232392       -2.19602050989706       -2.36979065099956
H           -6.09980168796198       -3.00727287882581       -1.12359042366501
H           -4.49784754718760       -1.40715823213653       -0.15888600615288
H           -3.62249895519865        3.66433059733539       -0.66580985794513
H           -4.51327544459879        5.76160705820055        0.26500590231898
H           -6.54861836771428        5.73305677752028        1.66390545454204
H           -7.68634003198354        3.58982104708604        2.12534859750643
H           -6.79014000888146        1.49047619386995        1.20275196005573
H           -2.92002154502909        2.10513640384522        1.49429221970716
H           -0.50212797431514        1.73104998125075        1.49277455223482
H            7.55910001158187        6.46795596304759        0.43955110090647
H            9.26346039379882        4.55277971073731       -0.05585932220625
H           10.27534356793034        2.23359205908794       -0.57613935554574
H           10.51822557349121       -0.31557447537004       -1.08924879256803
