83
 energy: -135.738437566018 gnorm: 0.000024257047 xtb: 6.7.1 (edcfbbe)
O           -0.67000572210736       -2.72689368465552        2.30555007776379
P           -0.39915572487533       -2.51833103685969        0.86838069238806
C            0.51273719322312       -3.92186855690453        0.14325279076135
C            1.07636233707341       -3.88517048429873       -1.12655057635580
C            1.71709328593421       -5.00351416285373       -1.62633996495900
C            1.79244563101865       -6.16173934733002       -0.86713060364708
C            1.22849723623040       -6.20190309711841        0.39724332788557
C            0.58715010936389       -5.08299581289882        0.89973434236994
C           -1.89887077973351       -2.47204138954839       -0.16439513077385
C           -3.06776504452891       -2.95888471429573        0.40312870579256
C           -4.22355287877867       -3.04407350175499       -0.35214796690496
C           -4.20756089791081       -2.65042292581727       -1.68027395762607
C           -3.03983660683372       -2.16331685178819       -2.24866307737689
C           -1.88403828677357       -2.07658687428341       -1.49532560475435
C            0.64765816770701       -1.06417108377395        0.51972098770889
C            2.01102615660571       -1.29863076677890        0.62382212979721
C            2.95065564924562       -0.30203107962716        0.37044302425622
N            4.26242547216013       -0.51355113411807        0.46891297087744
C            5.13807988498626        0.44966094624682        0.21266504716118
C            4.65847001435917        1.75591368410846       -0.18322205112081
N            3.35291118443446        1.96672897176074       -0.28798119230702
C            2.47050571063694        1.00232950171844       -0.02740948658230
C            1.09664281361151        1.21237359977738       -0.10989662130649
C            0.17438791627269        0.20950666503733        0.17595607979975
C           -1.25563645688048        0.52120934245517        0.14926244392683
C           -1.81237492389619        1.26933547876761       -0.88947171306531
C           -3.15329858904240        1.58047675444427       -0.89790297049200
C           -3.98408716449216        1.16181811565763        0.14683080602174
N           -5.33830053404671        1.48603627953112        0.14851964850517
C           -6.04518421572390        1.56901495063634       -1.05643501444465
C           -7.02434674015462        2.54831898221578       -1.23485013210523
C           -7.71993071689804        2.62295624214263       -2.42601933325918
C           -7.45103847774657        1.73102580310973       -3.45293904856883
C           -6.47861335047925        0.75776256978495       -3.27979222795444
C           -5.77870370115985        0.67150459851054       -2.09218918859521
C           -6.00002448584883        1.74528109042753        1.35486464547959
C           -5.35930080061062        2.44681017490498        2.37804824451810
C           -6.02271509313798        2.70516637717744        3.56171367369343
C           -7.32839375279385        2.27523146705316        3.74303214402015
C           -7.96939161429700        1.58046291502274        2.72875586673160
C           -7.31416662725367        1.31292468005110        1.54259058191811
C           -3.42711799914843        0.42342926166558        1.19499496358857
C           -2.08571901215908        0.10926473494258        1.19220626338648
C            5.61204381626634        2.74862651162842       -0.44326278191290
S            5.23746203745070        4.37932735934681       -0.92566208799135
C            6.92414900487178        4.76361355223075       -0.98539487074538
C            7.72609912558185        3.72339443089568       -0.66034220455586
C            6.99630167520645        2.54752275000752       -0.34283059399212
C            7.46476075961201        1.27047664976882        0.03969674567850
C            8.79606276823708        0.80776352251888        0.21106392727092
C            8.85264905764243       -0.49092904763259        0.58649356596922
S            7.29608078656691       -1.23027813176147        0.75521143169661
C            6.52385156890742        0.26440782118849        0.30373269737208
H            1.02834810437113       -2.97804776146287       -1.71114121644332
H            2.16193512147269       -4.97206118633014       -2.61026301132623
H            2.29503300201088       -7.03246058515688       -1.26184518051283
H            1.28879517957349       -7.10181594528891        0.99170741787699
H            0.14655988709224       -5.08622019673095        1.88735237895698
H           -3.05147893087806       -3.25959057277932        1.44167159117169
H           -5.13298032672736       -3.42163754483960        0.09173544097604
H           -5.10624478464634       -2.72728220334802       -2.27453222853534
H           -3.02939126035518       -1.85265023296125       -3.28333207005984
H           -0.97417492526304       -1.69205037107393       -1.93207844033499
H            2.37189383932840       -2.27846980245251        0.90679938611666
H            0.75685606789649        2.20429690936753       -0.36648018391869
H           -1.18245600879937        1.59868400793195       -1.70231106727459
H           -3.56583002735242        2.16735611502238       -1.70473773235925
H           -7.22351865839562        3.25283023183614       -0.44104008374478
H           -8.47064156176905        3.38808197362209       -2.55663495247404
H           -7.99600705707562        1.79420147202386       -4.38248287916035
H           -6.26914500170180        0.05690344709009       -4.07404797673344
H           -5.03107826536531       -0.09404666196928       -1.94779720442453
H           -4.34750072198454        2.79519506035538        2.23201798147792
H           -5.51949566733778        3.25336742505678        4.34422856232685
H           -7.84316418391484        2.48126530209785        4.66904299195894
H           -8.98410090461007        1.23756325648876        2.86564840342137
H           -7.80852472846212        0.75915088018105        0.75840721854755
H           -4.05530070414612        0.08795281921701        2.00626175114625
H           -1.66426455320321       -0.44494131275085        2.01816524871627
H            7.21371041489156        5.75786509865722       -1.26378429898151
H            8.79927474634807        3.77917576417832       -0.64326357547297
H            9.66350430020584        1.42371056584222        0.05877721125562
H            9.72491359412714       -1.08311717360925        0.78225321114971
