95
 energy: -147.934739800626 gnorm: 0.000027150169 xtb: 6.7.1 (edcfbbe)
C           -2.10696921952885       -3.32574286859702        3.88731853471190
C           -2.11580266668639       -2.13334046156450        3.18159453401261
C           -2.40145686045659       -2.12655970994852        1.82985969545787
C           -2.66734883472558       -3.32438694910309        1.17393700579111
N           -2.95642731992939       -3.32223767845425       -0.19987370338143
C           -2.25943209774389       -2.69313397173962       -1.21338466934171
C           -0.99600156437545       -2.00196135750902       -1.01176727113717
C           -0.03319565323652       -2.44283986108741       -0.10639132087474
C            1.10699761865346       -1.69474795941639        0.11401216235949
C            1.30263705254462       -0.48847012490047       -0.55032493998149
C            2.42873524498770        0.39887323703594       -0.20488729267175
C            3.73697424447085       -0.05183887225677       -0.27607913850161
C            4.79757376772178        0.80102541475395        0.01406318552299
N            6.11373678346244        0.32800167045401       -0.04712523079120
C            7.16473511848126        0.93388918903142       -0.70742404005486
C            7.17427091402764        2.07760339653752       -1.49281727330180
C            8.37252777241002        2.45537830131220       -2.06775290128274
C            9.53648111618642        1.71372244829351       -1.87843569733814
C            9.52763266267500        0.56092513499514       -1.11912093515697
C            8.33510506097932        0.16075650338277       -0.53098372942666
C            7.96340938154371       -0.96335707710685        0.28189069971254
C            8.66771472461499       -2.04263033035791        0.79888904166435
C            7.99434028777108       -2.95765869108115        1.58307630199705
C            6.63982561689965       -2.79818617578153        1.86650634468350
C            5.91806418054869       -1.73262653563218        1.36386546927414
C            6.58342194342640       -0.82305929634851        0.55460000669253
C            4.53985916669433        2.12340262411327        0.36467488134961
C            3.23647223414135        2.57571352461741        0.43635350328411
C            2.16990315349705        1.72578894962308        0.17335207809944
C            0.77427973605542        2.17855654948567        0.30076054877099
C            0.30593677629502        3.28686643565848       -0.39703695500214
C           -1.03948074995102        3.60385813152810       -0.39829624431010
C           -1.93741701971340        2.82177814626000        0.32024537113985
N           -3.31772090123785        3.04356602351601        0.24591973292097
C           -3.98775760987505        4.22889243826166        0.46494398973876
C           -3.48763169128829        5.47120256184340        0.82625114728068
C           -4.39099397215330        6.50066782348382        1.00860458000749
C           -5.76048361448224        6.30358238976398        0.84543576149733
C           -6.26512924694870        5.06407058331647        0.50596702419487
C           -5.37772753879135        4.01323742941127        0.31569733304899
C           -5.54294649055525        2.62641915087723       -0.02186620065578
C           -6.64623444882207        1.83288341076318       -0.30985924362132
C           -6.44138618720334        0.50770201491302       -0.63873024573001
C           -5.15608128589674       -0.02663113109960       -0.70341349465450
C           -4.04388370970415        0.74166257198180       -0.41893093815294
C           -4.24631229136359        2.06601259701269       -0.05639924873712
C           -1.45962097538564        1.77012060972942        1.09876317981488
C           -0.12040102512213        1.44954884134466        1.08254457483497
C            0.38092284381963       -0.09757681747343       -1.52037062766653
C           -0.75017865841083       -0.84739230595895       -1.75522858430624
N           -2.85892444897769       -2.77793507690077       -2.36886519424736
C           -4.00878544190201       -3.48473997940345       -2.15162754002398
C           -5.02337716050526       -3.84675769553548       -3.03124858027578
C           -6.09661684981021       -4.54243231806551       -2.51737510970132
C           -6.17740660846517       -4.87068229137686       -1.16210822315056
C           -5.18158743796709       -4.52346616577056       -0.27127952054822
C           -4.09138287438059       -3.83933388117740       -0.78376425836317
C           -2.66184484313549       -4.52144922772239        1.88098165435966
C           -2.38400159403377       -4.51591677469625        3.23618805195191
H           -1.88652223962305       -3.32686436787586        4.94403558949998
H           -1.90657191669178       -1.20309528045130        3.68864775214020
H           -2.42201460848692       -1.20205856170482        1.27382442957516
H           -0.17376868275526       -3.37029652844329        0.42906483870373
H            1.83590178250211       -2.02926324042377        0.83847656546390
H            3.93645177310170       -1.06536626884022       -0.59162059600258
H            6.27394564993070        2.64894850053898       -1.66173335258691
H            8.40648823165094        3.34381475629480       -2.68105714967781
H           10.45383130091269        2.04407915264260       -2.34250029031537
H           10.42550253323321       -0.02354151482667       -0.98609430622053
H            9.72119647715112       -2.15682044850128        0.59264131971896
H            8.52272139740313       -3.80561417902779        1.99276072367200
H            6.14344840954747       -3.52180126683957        2.49642931797431
H            4.87334760283658       -1.60724000330269        1.60567000973010
H            5.36097810245738        2.78282066849782        0.60131701537394
H            3.03756110200087        3.59615748585449        0.73004867461059
H            0.99535112307683        3.87319327535009       -0.98734022921227
H           -1.40493059823332        4.43167251502013       -0.98735208308050
H           -2.42886209879050        5.62748079021503        0.96951209419143
H           -4.02781360656330        7.47917786152471        1.28660530751388
H           -6.43391050176154        7.13441329652461        0.99482771894308
H           -7.32753387808260        4.90944520107541        0.39221655375822
H           -7.64141502075668        2.25067910571852       -0.28342652755823
H           -7.28506695173758       -0.12685779411019       -0.86564659295271
H           -5.02983960019838       -1.05895633138605       -0.99449465927561
H           -3.04743948029177        0.33204147507406       -0.50184820972342
H           -2.15274615690500        1.20708444054774        1.70613323902207
H            0.24096224472734        0.62230516329083        1.67535504945817
H            0.55229679501379        0.80946809519052       -2.08071119413434
H           -1.47467270296367       -0.54535683848773       -2.49552671260438
H           -4.96250182838911       -3.57867302001494       -4.07353502220998
H           -6.90242197627226       -4.83762149911983       -3.17307276099449
H           -7.04284984306538       -5.40727727359591       -0.80247142057266
H           -5.25379365892940       -4.76658611862003        0.77846676473734
H           -2.86194557737788       -5.44805314806524        1.36342080185692
H           -2.37868824566340       -5.44671350629123        3.78354940914745
