95
 energy: -147.846377494831 gnorm: 0.000077860986 xtb: 6.7.1 (edcfbbe)
C           -0.64414490782068       -5.87771115689593        2.74351904894065
C           -0.90655426576559       -4.51962859855284        2.83308538969775
C           -1.55053500503327       -3.86463929621737        1.80161572328442
C           -1.92521307138981       -4.57019740354684        0.65968196070579
N           -2.60687946139733       -3.92064837923529       -0.37902052632930
C           -2.29702179558371       -2.71399777782374       -1.01482726731276
C           -1.07745264198895       -2.01362713661834       -0.95145916968773
C            0.13575676382992       -2.51019041301929       -0.38658189878410
C            1.23469683163857       -1.71742190702276       -0.27140280379541
C            1.20866789187058       -0.34649511816653       -0.65354678621806
C            2.25089031555867        0.56576233412730       -0.31494012473957
C            3.59256239510718        0.15076011673579       -0.25099904763275
C            4.61895477583215        1.05795660013481       -0.12234882351083
N            5.94716565571835        0.62272415608165       -0.08250726927554
C            6.98971249885208        1.13589119076842       -0.82729418280660
C            6.97618657882697        2.12088690237813       -1.80522431778756
C            8.17273564771938        2.43416965329470       -2.42164849054106
C            9.35598260918315        1.77915095658584       -2.08858647493437
C            9.37031614764688        0.77714245622693       -1.13736256249436
C            8.18132384351818        0.44600389234564       -0.50343861598685
C            7.82859609894991       -0.53251749145268        0.48828437257826
C            8.55519585113082       -1.48106255161994        1.19393686939471
C            7.89423584055642       -2.26872122219333        2.11659727986309
C            6.53069443663684       -2.10698600512149        2.35055229797219
C            5.78632374818412       -1.16929847405953        1.66032678065501
C            6.43937514463139       -0.39230000530692        0.71376230597037
C            4.33726117551036        2.44065915122808       -0.03504753788969
C            3.03068679724085        2.86520757393385       -0.02835231752465
C            1.96858951285841        1.96370002901348       -0.10597007070999
C            0.60924864060807        2.39975917165220        0.13338759483679
C            0.11493180915857        3.61247889233261       -0.37070824717824
C           -1.21588865445138        3.94028381434444       -0.25491099751408
C           -2.10104035795054        3.07955821165000        0.40182217776639
N           -3.46943481973251        3.33817153424095        0.43470636413894
C           -4.08210713828316        4.53605764827101        0.74300823345910
C           -3.52062091284018        5.73436601521510        1.16082481550620
C           -4.37469818239996        6.78548704041158        1.43797996438671
C           -5.75527090144730        6.65123431398605        1.31613972223804
C           -6.32182733772459        5.45152882715873        0.92822030023353
C           -5.48513744307972        4.38278563106785        0.64300256137905
C           -5.72067024738624        3.02111777517660        0.24380903392117
C           -6.86832984517980        2.29357937640950       -0.03861381722672
C           -6.73535874619248        0.97768399042733       -0.44089067772723
C           -5.47896141283973        0.39293186503212       -0.57986708126643
C           -4.32275421372381        1.09740815518777       -0.30187894613942
C           -4.45130798614805        2.41041678145678        0.12945387739249
C           -1.59985933999485        1.92327527996862        1.00521898399773
C           -0.27642426385360        1.58969006345288        0.86926953534664
C            0.05679180219369        0.08199433050752       -1.38735232686285
C           -1.02453378012159       -0.71890235219204       -1.54521051762715
N           -3.31606575755455       -2.29232344493787       -1.77481658386898
C           -4.28577306179497       -3.21697976805016       -1.67006482783093
C           -5.55443550317984       -3.26248145052534       -2.25909949533155
C           -6.36838924948715       -4.32791235923010       -1.94760369885488
C           -5.95795485347084       -5.33453587865521       -1.06849706522197
C           -4.70570430421911       -5.31666725552348       -0.47474034543345
C           -3.87256894407819       -4.26188529634018       -0.79287197802427
C           -1.66453153899942       -5.93406329509925        0.57122511423807
C           -1.02571767685135       -6.58122000893007        1.61316046527093
H           -0.14391355376104       -6.38638785692825        3.55365102935350
H           -0.61504866480945       -3.96941749246719        3.71539360815056
H           -1.76416005523349       -2.80774591934137        1.86503209430811
H            0.18994779215327       -3.53746886572202       -0.06150608056507
H            2.12561905744085       -2.11992226692717        0.18826408604224
H            3.83194031047871       -0.89193575774057       -0.39483608327019
H            6.06020922480933        2.61733770009588       -2.08713868059604
H            8.18930275316408        3.19971605421649       -3.18322045253137
H           10.27088009523296        2.05359842527308       -2.59214276055245
H           10.28408720929245        0.25682901184695       -0.89308347140181
H            9.61548662522222       -1.59426059398829        1.02571206876903
H            8.44046934274079       -3.01516757862214        2.67373947252461
H            6.04467797121641       -2.72619782418695        3.09003247134551
H            4.73407916755329       -1.03814313230211        1.86216528887865
H            5.14819016942213        3.14016355655080        0.09318480413456
H            2.81750621113828        3.91460851991276        0.11553688876124
H            0.77339658486300        4.26141794406971       -0.92893604403083
H           -1.59622712309707        4.83723985290266       -0.72046636769996
H           -2.45333761759198        5.84171727718463        1.28099309451721
H           -3.96197429067155        7.72975631842457        1.76092575355426
H           -6.38944042695236        7.49607618033106        1.53962137468724
H           -7.39316257457549        5.34312788628449        0.85242417706820
H           -7.84169830787947        2.75263257911643        0.04787722875853
H           -7.61648634433810        0.39450272805443       -0.66360908691076
H           -5.39694605642746       -0.62787275835163       -0.91982405379393
H           -3.35716357854175        0.63557606588269       -0.43648513874214
H           -2.26407180197154        1.29907374187044        1.58357887252493
H            0.10335747942387        0.70646155927282        1.36009138358913
H            0.08268201274116        1.04918350861809       -1.86674528277499
H           -1.88258737613234       -0.40031007392722       -2.11562667191452
H           -5.86806961681587       -2.48031891822298       -2.93185184240811
H           -7.35337576430153       -4.39163835839852       -2.38659912909341
H           -6.63434696835066       -6.14626739595794       -0.84569993385591
H           -4.40097179610131       -6.09254109257263        0.21186289969222
H           -1.95051152241872       -6.47344218584052       -0.31965257154620
H           -0.82094672376888       -7.63899385492423        1.53909695908656
