95
 energy: -147.846373710397 gnorm: 0.000094583703 xtb: 6.7.1 (edcfbbe)
C           -1.07814470409969       -5.51158633964208        3.20246185268713
C           -1.26990586344177       -4.13971080128553        3.15266402173513
C           -1.83723095020918       -3.55527461356223        2.03727563656410
C           -2.20548699012073       -4.34742242476141        0.95131739588527
N           -2.81025169536789       -3.76638484099779       -0.17194341975220
C           -2.41543754514402       -2.63472705163185       -0.89297344332809
C           -1.16446584454531       -1.99145284670268       -0.83557892812318
C            0.00081524612519       -2.50338057989592       -0.18954432275938
C            1.13593555264113       -1.76047686742959       -0.09382613426129
C            1.19407496548870       -0.42298888028776       -0.57690700746534
C            2.27127768063493        0.45916011160114       -0.26818679452228
C            3.58741212854689       -0.01530522178677       -0.13342650317086
C            4.65439394004118        0.84766239212043       -0.03261304012730
N            5.95695071354407        0.35198456843549        0.07936998085078
C            7.04663519524533        0.76401269651114       -0.66086842844381
C            7.11334548894784        1.68209950545786       -1.69982582134092
C            8.34289082513995        1.89637653231668       -2.29329144896586
C            9.48072210747304        1.20849415549619       -1.87834544041403
C            9.41470562411139        0.27114136387644       -0.86540844277366
C            8.19125231733329        0.03987668928395       -0.25313302152298
C            7.75899602040272       -0.85364040139702        0.78616941287241
C            8.41460634932591       -1.78858819918143        1.57464286794475
C            7.68662390012725       -2.48158359602387        2.52244522820767
C            6.32659740419223       -2.23856067381687        2.69961600214447
C            5.65228606889203       -1.31249390827071        1.92664637526076
C            6.37243220179224       -0.63160427362772        0.95505499118790
C            4.44028284303035        2.24515681024157       -0.04731947314198
C            3.15732581374688        2.73217447257584       -0.11212871673005
C            2.05358093993682        1.88005315399766       -0.16362231980852
C            0.71103195662266        2.39540225244880        0.00095786068589
C            0.29207240135325        3.59333500181946       -0.59802691986433
C           -1.02428344623132        3.98944191906231       -0.54979533834941
C           -1.97040654297809        3.21636015956594        0.13056800479050
N           -3.32542769640218        3.53779422809656        0.09754079151394
C           -3.89123035750129        4.77971449419055        0.30433189502959
C           -3.28844308594329        5.97715975458686        0.66284684377559
C           -4.10110781154931        7.08153823925432        0.83910510228417
C           -5.48160444118014        7.00107864562688        0.67595796221324
C           -6.09053232321458        5.80443669284246        0.34727687840402
C           -5.29581113543520        4.68271595330100        0.16363971623743
C           -5.58146763254477        3.30920625634460       -0.15385269631298
C           -6.75187948132330        2.61619083475405       -0.42966484226986
C           -6.66730690728449        1.27182045264775       -0.74045925464773
C           -5.43571173391092        0.62377643778266       -0.79540950219236
C           -4.25777195247394        1.29302660266998       -0.52169168342066
C           -4.33898980498351        2.63634327819549       -0.18184090563376
C           -1.54470362966587        2.08187872035770        0.82632984959092
C           -0.23537065177415        1.67930864639985        0.75852921675802
C            0.09093480515080        0.00676221729032       -1.38106142381397
C           -1.02435375263176       -0.74981948995526       -1.52112771559791
N           -3.38095170469151       -2.23251830211950       -1.72926435311950
C           -4.39897257921375       -3.09892670465336       -1.59013568077827
C           -5.64355977202968       -3.13575623828335       -2.22898994074211
C           -6.52180646132845       -4.13142114335608       -1.86573339517266
C           -6.19819934002525       -5.07642996177611       -0.88758858091339
C           -4.97162984853847       -5.06574176240521       -0.24222314675499
C           -4.07413633002743       -4.08263036857495       -0.61077214343570
C           -2.01522921466378       -5.72478123064190        1.00246130611800
C           -1.45309617999586       -6.30016169712401        2.12739700191736
H           -0.63800599922014       -5.96467721679589        4.07783777709389
H           -0.98344228425839       -3.52269092997072        3.99135797258527
H           -1.99601144149882       -2.48783533063691        1.99218523088389
H           -0.01070783886997       -3.50421762031903        0.21325338882993
H            1.98918000846979       -2.17058675087588        0.42662624825483
H            3.77721094940072       -1.07587334021398       -0.19992571306467
H            6.23282291327487        2.20236827509028       -2.04470094391031
H            8.42176813299015        2.60869652758553       -3.10119175986644
H           10.42367020073406        1.40524064585198       -2.36627025977600
H           10.29297545984018       -0.27560326700025       -0.55704944434755
H            9.47241514137449       -1.96398591781625        1.44975535984134
H            8.17689679612247       -3.21611930114225        3.14376854853726
H            5.78733918542152       -2.78392777451781        3.46002939870927
H            4.60249214830042       -1.11727342660916        2.08454359447637
H            5.28133073905723        2.91178089773756        0.06033174459834
H            2.99361186668903        3.79814345625118       -0.04652180892916
H            0.99828129058091        4.17227458065782       -1.17456825650169
H           -1.34588111047300        4.86986075857134       -1.08586329689145
H           -2.22190206476501        6.04462451655456        0.81450982679246
H           -3.65562184974095        8.02604727559328        1.11427051521142
H           -6.08257356885026        7.88648745415367        0.82003680815547
H           -7.16262734641359        5.73902560103849        0.23962733013518
H           -7.70504735600031        3.12282752384720       -0.40858854485390
H           -7.56679485854309        0.71483189077396       -0.95670487053054
H           -5.39040478444642       -0.41993241322208       -1.06553381320057
H           -3.31081318867026        0.78084973688872       -0.59051466229640
H           -2.25609540027772        1.52966624768443        1.42157307493277
H            0.08577277282661        0.81514424235423        1.32005491804540
H            0.18263858550090        0.93410160626083       -1.92663048924723
H           -1.84500248615713       -0.43318642790514       -2.14517992527598
H           -5.89003900127745       -2.40032047364619       -2.97806793062732
H           -7.49016038435006       -4.18692881753680       -2.34133211055417
H           -6.92289440787111       -5.83357646932545       -0.62757006887713
H           -4.73469682926001       -5.79271927948911        0.52039804602706
H           -2.29466817343930       -6.33218468700759        0.15433926320608
H           -1.30298906387066       -7.36908118062353        2.16179922151899
