  71
       -107.08890733
 C          3.0782144949        4.3361617411        0.5301875578
 C          4.2394003049        3.8188694066       -0.0191913052
 C          4.4759559465        2.4577922595        0.0091194982
 C          3.5419895461        1.6031605838        0.5896186342
 C          2.3690167672        2.1229134934        1.1547077383
 C          2.1516487152        3.4859518033        1.1153845802
 C          1.4164358885        1.1609691601        1.7925235805
 C          1.3812507897       -0.1792140612        1.0147941040
 C          2.8002986303       -0.6658074568        1.0167474372
 C          3.1557277608       -1.9103089636        1.4606890073
 C          2.2048285461       -2.7682780599        2.0163602465
 C          0.8863919391       -2.3544903995        2.1563487944
 C          0.4371733183       -1.1351739874        1.6955858011
 C         -0.9611420195       -0.7925432501        1.6891059982
 C         -1.8374503916       -1.3455279503        2.6273981733
 C         -3.1916167679       -1.1279514921        2.5582519144
 C         -3.7208584846       -0.3692782502        1.5131118752
 C         -2.8749206440        0.2632245940        0.5990433040
 C         -1.4872791457        0.0942077457        0.6989824201
 C         -0.5447590431        0.7717838704       -0.1686234811
 C         -0.6927719071        2.0779141387       -0.5730377619
 C          0.2609144678        2.7406498237       -1.3422969585
 C          1.3948480096        2.0648008129       -1.7882940926
 C          1.6337336064        0.7726201222       -1.3998676179
 C          0.7463318837        0.0397451122       -0.4383028606
 C          0.4658033206       -1.3335891555       -1.0954290201
 C          1.7463303394       -2.0577854503       -1.3678528574
 C          1.8934444868       -3.4231556631       -1.2274977599
 C          3.1014149817       -4.0387961388       -1.5209147021
 C          4.1724004990       -3.2829255106       -1.9677408077
 C          4.0465203224       -1.9142246336       -2.1118704351
 C          2.8381328609       -1.2948557051       -1.8042347403
 N          2.6770367507        0.0664095734       -1.9363146547
 C         -3.5235968294        1.0731470150       -0.4953167609
 C         -4.8922124346        0.5627745051       -0.8518217065
 C         -5.4342899561        0.7406618650       -2.1113203572
 C         -6.7381456545        0.3571086765       -2.3846593040
 C         -7.5115955282       -0.2104635788       -1.3867410844
 C         -6.9779426077       -0.4205669585       -0.1291112563
 C         -5.6667519283       -0.0417832494        0.1414863248
 N         -5.0964577923       -0.2596482402        1.3806479637
 N          3.7561957741        0.2435985367        0.6407715481
 H          2.8947881562        5.3993883267        0.5054373335
 H          4.9656030953        4.4784018301       -0.4712995267
 H          5.3836502991        2.0478795696       -0.4128431066
 H          1.2484640718        3.8879855097        1.5505060885
 H          1.7614559938        0.9339923363        2.8090423436
 H          0.4223919261        1.5977036010        1.8743177663
 H          4.1923447180       -2.2141839871        1.4106658956
 H          2.5036411216       -3.7461072762        2.3582325178
 H          0.1804576516       -3.0406692203        2.6001707513
 H         -1.4413135299       -1.9422485797        3.4342138376
 H         -3.8568057525       -1.5638567181        3.2904952044
 H         -1.5582374430        2.6358178945       -0.2546378442
 H          0.1057406228        3.7699784827       -1.6221816853
 H          2.0894999857        2.5551434894       -2.4562227170
 H         -0.0478354999       -1.1416787431       -2.0457552939
 H         -0.1959225629       -1.9410939397       -0.4808472730
 H          1.0550954590       -4.0117316797       -0.8853038188
 H          3.2049979735       -5.1065406668       -1.4035054810
 H          5.1117095684       -3.7610556413       -2.2040477639
 H          4.8785389310       -1.3182454011       -2.4617729852
 H          3.3720888981        0.5838890097       -2.4550477273
 H         -3.6456479290        2.1103414036       -0.1532981805
 H         -2.8874253118        1.0924228122       -1.3825321178
 H         -4.8332085730        1.1975920638       -2.8845629658
 H         -7.1510150218        0.5110705990       -3.3700775271
 H         -8.5318964493       -0.5008009148       -1.5898309384
 H         -7.5716479722       -0.8796955274        0.6494071878
 H         -5.6500385971       -0.7768846652        2.0491056469
 H          4.6940841618       -0.0997306930        0.4920445511
