  71
  -106.587327224000       0.749529407924869      !
 C          3.0782144949        4.3361617411        0.5301875578
 C          4.2394003049        3.8188694066       -0.0191913052
 C          4.4759559465        2.4577922595        0.0091194982
 C          3.5419895461        1.6031605838        0.5896186342
 C          2.3690167672        2.1229134934        1.1547077383
 C          2.1516487152        3.4859518033        1.1153845802
 C          1.4164358885        1.1609691601        1.7925235805
 C          1.3812507897       -0.1792140612        1.0147941040
 C          2.8002986303       -0.6658074568        1.0167474372
 C          3.1557277608       -1.9103089636        1.4606890073
 C          2.2048285461       -2.7682780599        2.0163602465
 C          0.8863919391       -2.3544903995        2.1563487944
 C          0.4371733183       -1.1351739874        1.6955858011
 C         -0.9611420195       -0.7925432501        1.6891059982
 C         -1.8374503916       -1.3455279503        2.6273981733
 C         -3.1916167679       -1.1279514921        2.5582519144
 C         -3.7208584846       -0.3692782502        1.5131118752
 C         -2.8749206440        0.2632245940        0.5990433040
 C         -1.4872791457        0.0942077457        0.6989824201
 C         -0.5447590431        0.7717838704       -0.1686234811
 C         -0.6927719071        2.0779141387       -0.5730377619
 C          0.2609144678        2.7406498237       -1.3422969585
 C          1.3948480096        2.0648008129       -1.7882940926
 C          1.6337336064        0.7726201222       -1.3998676179
 C          0.7463318837        0.0397451122       -0.4383028606
 C          0.4658033206       -1.3335891555       -1.0954290201
 C          1.7463303394       -2.0577854503       -1.3678528574
 C          1.8934444868       -3.4231556631       -1.2274977599
 C          3.1014149817       -4.0387961388       -1.5209147021
 C          4.1724004990       -3.2829255106       -1.9677408077
 C          4.0465203224       -1.9142246336       -2.1118704351
 C          2.8381328609       -1.2948557051       -1.8042347403
 N          2.6770367507        0.0664095734       -1.9363146547
 C         -3.5235968294        1.0731470150       -0.4953167609
 C         -4.8922124346        0.5627745051       -0.8518217065
 C         -5.4342899561        0.7406618650       -2.1113203572
 C         -6.7381456545        0.3571086765       -2.3846593040
 C         -7.5115955282       -0.2104635788       -1.3867410844
 C         -6.9779426077       -0.4205669585       -0.1291112563
 C         -5.6667519283       -0.0417832494        0.1414863248
 N         -5.0964577923       -0.2596482402        1.3806479637
 N          3.7561957741        0.2435985367        0.6407715481
 H          2.8947881562        5.3993883267        0.5054373335
 H          4.9656030953        4.4784018301       -0.4712995267
 H          5.3836502991        2.0478795696       -0.4128431066
 H          1.2484640718        3.8879855097        1.5505060885
 H          1.7614559938        0.9339923363        2.8090423436
 H          0.4223919261        1.5977036010        1.8743177663
 H          4.1923447180       -2.2141839871        1.4106658956
 H          2.5036411216       -3.7461072762        2.3582325178
 H          0.1804576516       -3.0406692203        2.6001707513
 H         -1.4413135299       -1.9422485797        3.4342138376
 H         -3.8568057525       -1.5638567181        3.2904952044
 H         -1.5582374430        2.6358178945       -0.2546378442
 H          0.1057406228        3.7699784827       -1.6221816853
 H          2.0894999857        2.5551434894       -2.4562227170
 H         -0.0478354999       -1.1416787431       -2.0457552939
 H         -0.1959225629       -1.9410939397       -0.4808472730
 H          1.0550954590       -4.0117316797       -0.8853038188
 H          3.2049979735       -5.1065406668       -1.4035054810
 H          5.1117095684       -3.7610556413       -2.2040477639
 H          4.8785389310       -1.3182454011       -2.4617729852
 H          3.3720888981        0.5838890097       -2.4550477273
 H         -3.6456479290        2.1103414036       -0.1532981805
 H         -2.8874253118        1.0924228122       -1.3825321178
 H         -4.8332085730        1.1975920638       -2.8845629658
 H         -7.1510150218        0.5110705990       -3.3700775271
 H         -8.5318964493       -0.5008009148       -1.5898309384
 H         -7.5716479722       -0.8796955274        0.6494071878
 H         -5.6500385971       -0.7768846652        2.0491056469
 H          4.6940841618       -0.0997306930        0.4920445511
  71
  -106.586291399600       0.250470592075131      !
 C          2.5350931121        4.3974064023        0.2640389598
 C          3.7879855175        3.9832862509       -0.1564863586
 C          4.1712142067        2.6644353189       -0.0053414281
 C          3.2934726835        1.7482345830        0.5691455051
 C          2.0271733525        2.1642555986        1.0037706526
 C          1.6639127127        3.4869011249        0.8435018422
 C          1.1373221903        1.1438699847        1.6419833021
 C          1.3174609621       -0.2428995307        0.9743982169
 C          2.7779286261       -0.5577337879        1.1142059648
 C          3.2360787524       -1.7200775188        1.6726223780
 C          2.3494493900       -2.6441561549        2.2278547837
 C          0.9861634120       -2.3772313544        2.2494418134
 C          0.4394916485       -1.2552695397        1.6651865530
 C         -0.9856687739       -1.0823101871        1.5451746357
 C         -1.8682493021       -1.6486334572        2.4697203489
 C         -3.2311966570       -1.5385150026        2.3217132797
 C         -3.7562565972       -0.9431973915        1.1747026897
 C         -2.9036338022       -0.4055424526        0.2058669934
 C         -1.5248603111       -0.3713635402        0.4308167340
 C         -0.6091633211        0.3584553803       -0.4199098753
 C         -0.9044741545        1.6093957064       -0.9095933542
 C          0.0084931627        2.3549360428       -1.6510338262
 C          1.2540301093        1.8153534234       -1.9698859132
 C          1.6354020012        0.5931383810       -1.4811296711
 C          0.7837861880       -0.2013038924       -0.5359381059
 C          0.7444044018       -1.6388077847       -1.1067783179
 C          2.1290575571       -2.1879170330       -1.2486112394
 C          2.4503550940       -3.5090557809       -1.0089354310
 C          3.7485627477       -3.9651118051       -1.1834498590
 C          4.7361455890       -3.0931471600       -1.6108959839
 C          4.4357080556       -1.7663034960       -1.8535737549
 C          3.1351722061       -1.3055879776       -1.6657938179
 N          2.8023395406        0.0101252630       -1.8982166406
 C         -3.5533254699       -0.0567881069       -1.1104478086
 C         -4.8889210620        0.5903766303       -0.8872367973
 C         -5.3923055267        1.5924451048       -1.6938078013
 C         -6.6761651751        2.0791586153       -1.4977549096
 C         -7.4630598763        1.5582559495       -0.4852337478
 C         -6.9636265552        0.5770743969        0.3515370343
 C         -5.6728662426        0.0959044255        0.1612796375
 N         -5.1277132436       -0.8684349822        0.9893299829
 N          3.6530103374        0.4301313076        0.7400250380
 H          2.2370704163        5.4275728173        0.1430914971
 H          4.4707345103        4.6906648951       -0.6040147054
 H          5.1503482799        2.3350222333       -0.3260301919
 H          0.6887783366        3.8094633334        1.1775953697
 H          1.4173777463        1.0328405495        2.6969943946
 H          0.0972913251        1.4649928640        1.6114031390
 H          4.3011872842       -1.9024256611        1.7147680861
 H          2.7293339328       -3.5549391456        2.6619455677
 H          0.3289242365       -3.1062404221        2.6999664583
 H         -1.4730202996       -2.1382279501        3.3463076249
 H         -3.8995858389       -1.9333547855        3.0738950697
 H         -1.8662813285        2.0480787667       -0.6856603078
 H         -0.2575570295        3.3372373160       -2.0062943417
 H          1.9269969649        2.3587458551       -2.6187964927
 H          0.2755442659       -1.5852492263       -2.0971752411
 H          0.1331476476       -2.2928832321       -0.4872112572
 H          1.6774714202       -4.1886084316       -0.6814676472
 H          3.9878537077       -4.9992652846       -0.9888465249
 H          5.7464001519       -3.4473569525       -1.7545480449
 H          5.2017759841       -1.0803419757       -2.1890238832
 H          3.4589088873        0.5893975330       -2.4015421770
 H         -2.9175559443        0.5478077520       -1.7509784489
 H         -3.7283721613       -1.0081349723       -1.6364650855
 H         -4.7814168539        1.9847429448       -2.4945244415
 H         -7.0635859148        2.8544581191       -2.1412232932
 H         -8.4683868114        1.9243316388       -0.3376890546
 H         -7.5694600696        0.1805583966        1.1545492291
 H         -5.7012066197       -1.1854950746        1.7582083463
 H          4.6318322008        0.1888912621        0.6818321735
