56
 energy: -91.645956492854 gnorm: 0.000060078375 xtb: 6.7.1 (edcfbbe)
O           -1.73450187530852        3.05019830565994       -3.34375024705386
C           -0.73527044353333        3.04278444882064       -2.66276670438947
O           -0.10359459807149        4.18420458997353       -2.32788569517845
C           -0.09806564666292        1.83573375780583       -2.11883611959330
C            1.03032634285621        1.90227475375851       -1.29577403968644
C            1.57644703526935        0.75585680638486       -0.77556444140721
C            1.01033026744829       -0.50641460543482       -1.04317523918234
C            1.51934090317243       -1.69063907942327       -0.41604882971539
C            0.66487147461059       -2.81758165536717       -0.14573677528141
C           -0.66017106922884       -2.81800507433945        0.15836615576074
C           -1.51652947563723       -1.69129517068961        0.42360259587176
C           -2.91463714493668       -1.81557164212299        0.08932676116823
C           -3.90749516480703       -1.16695732023552        0.84146737829713
C           -5.24175729762735       -1.31591241199872        0.52826169755519
C           -5.62848912174455       -2.10945541529284       -0.54191817909285
C           -4.66263833694650       -2.76500896979660       -1.29141667882363
C           -3.32701931247076       -2.62796539775018       -0.97921678923136
C           -1.00950835014894       -0.50340738511501        1.04538969119356
C           -1.57773495346624        0.75669757727665        0.77210185003684
C           -1.03353687827216        1.90635860782054        1.28714142926706
C            0.09496305884100        1.84541405922299        2.11049062651409
C            0.73014408961331        3.05596432237469        2.64897677685976
O            1.72936158893666        3.06811603286157        3.32991692819150
O            0.09656445565803        4.19480789381132        2.30895928965692
C            0.64586573185758        0.59965627285844        2.42354333921174
C            0.10731229816169       -0.55025293101989        1.90332727205438
C            2.91765296314593       -1.81106747583690       -0.08122566586633
C            3.33139337706538       -2.61794989913059        0.99096340589129
C            4.66723981426767       -2.75134715609011        1.30376755101578
C            5.63199089011051       -2.09755821070617        0.55131861195988
C            5.24393171279246       -1.30949207423621       -0.52242103399783
C            3.90942317726506       -1.16418385194891       -0.83628661379285
C           -0.10640600342283       -0.55899237146391       -1.90088876126590
C           -0.64688066992586        0.58766045035895       -2.42627472707727
H           -0.57794451154211        4.93737481460454       -2.71183727263761
H            1.45448167677659        2.86507975990060       -1.05798059112496
H            2.41510658232548        0.82235653408689       -0.09894950946539
H            1.15440633814410       -3.78385231587321       -0.19225038492525
H           -1.14808347754759       -3.78487987614927        0.20922475122918
H           -3.61841567132122       -0.57581865167654        1.69781095485248
H           -5.99014731457248       -0.81541726470599        1.12519975739012
H           -6.67403281614624       -2.22034678600736       -0.78659180583890
H           -4.95738332971062       -3.38407353587918       -2.12625691015459
H           -2.58279781481308       -3.12716786311041       -1.58253806031106
H           -2.41650169990355        0.81874667059554        0.09519626224288
H           -1.45930096414654        2.86737236737057        1.04501737777778
H            0.56965364886868        4.95049167696755        2.68951223821349
H            1.50300847782679        0.56644328335421        3.07932311498919
H            0.52076780381654       -1.50867858771089        2.17660635406013
H            2.58800827712773       -3.11567677470512        1.59652951865530
H            4.96302028071126       -3.36615277162683        2.14138457497942
H            6.67771927470924       -2.20559515056764        0.79648226622917
H            5.99148263550676       -0.81043650599765       -1.12161213809642
H            3.61935333636218       -0.57739298665248       -1.69528090068285
H           -0.51825720718347       -1.51932940127880       -2.16984697945118
H           -1.50396553389672        0.55005992006862       -3.08189453683234
