56
 energy: -91.694876996942 gnorm: 0.000045796137 xtb: 6.7.1 (edcfbbe)
O            6.17474724015821        2.64543969791240        1.69128002324828
C            6.08741869996474        1.80392229022783        0.83047511747225
O            7.11793046541266        1.51660669918719        0.01579195152158
C            4.87996725493193        1.00026537910829        0.55857277559151
C            3.74715780924873        1.21175908990421        1.34327287823603
C            2.59808351117198        0.48452349971235        1.11593718341211
C            2.55386456370029       -0.47171264196565        0.09944224031955
C            1.33776930045129       -1.25089251544373       -0.16802414461245
C            0.11413034653068       -0.67659342287154       -0.26468830000167
C           -0.14097060810555        0.72860862591767       -0.25283212005874
C           -1.36830583453031        1.29987095432983       -0.19086875769953
C           -1.53304345895339        2.75230053827989       -0.31089369287974
C           -0.69796874015184        3.51427248626351       -1.12870226212862
C           -0.86148293745340        4.88308381716778       -1.22184170253791
C           -1.85838415926584        5.51869267050404       -0.50005080783586
C           -2.69561808502288        4.77349885125551        0.31399162125562
C           -2.53834211596789        3.40418871156929        0.40579836625399
C           -2.59254029262396        0.51343353557366        0.01054214875089
C           -2.67454483876987       -0.46393012588830        1.00398943667795
C           -3.82810722990789       -1.20143958321808        1.17524234165908
C           -4.92831544308958       -0.97522410417760        0.35095152288738
C           -6.18019701187980       -1.74339272920464        0.49404434965095
O           -7.16432307894671       -1.58879950908768       -0.18730552046802
O           -6.13751591544749       -2.66142287353371        1.47582502763030
C           -4.85805630541946        0.00770414929244       -0.63669364683339
C           -3.70681111742780        0.74610820387127       -0.79967335457650
C            1.50553597994757       -2.70058659799066       -0.31522703909229
C            0.70459842786353       -3.44147436768029       -1.18489770881337
C            0.87010963234855       -4.80817062569807       -1.30297596594115
C            1.83498197648727       -5.46270791393555       -0.55503629578025
C            2.63816526592953       -4.73849209650626        0.31065423591361
C            2.47889847650488       -3.37132202665645        0.42768857808485
C            3.69892734551942       -0.69004257131984       -0.67047843946857
C            4.84788154160006        0.03915778079537       -0.45093178212590
H            7.87616806229439        2.07602904526661        0.24432139047936
H            3.79280297322983        1.95153971786507        2.12817016116608
H            1.73030734361292        0.63527644742780        1.74096821078290
H           -0.74350540620336       -1.32159573152717       -0.40236166493097
H            0.72077852427784        1.37672080642416       -0.34065095603458
H            0.06791772756016        3.02624330737699       -1.71341364707090
H           -0.21044117930443        5.45753599431133       -1.86458363628281
H           -1.98394518023786        6.58859196112161       -0.57396950644145
H           -3.47477347873155        5.26244873160995        0.88021562766816
H           -3.18876914872692        2.83015967791094        1.05019801967215
H           -1.83079083173635       -0.62497393148920        1.65889792111528
H           -3.88710093060332       -1.95330946850657        1.94660002075337
H           -6.98598811423902       -3.12880319102552        1.51780157573190
H           -5.72124652822670        0.17296577916293       -1.26343383752631
H           -3.65192758748174        1.50449675771421       -1.56701886167742
H           -0.03543452940972       -2.93820790211434       -1.78964330699818
H            0.24603227662655       -5.36599804754550       -1.98589823994112
H            1.96227567840642       -6.53089145894084       -0.64864874953614
H            3.39210850721276       -5.24231781225645        0.89767522127006
H            3.10214884790573       -2.81373652456554        1.11217146621760
H            3.67156016308211       -1.43233845289304       -1.45508156836454
H            5.72618214589410       -0.12706998102481       -1.05469389777338
