  56
        -91.69629036
 O         -1.1667400134        3.1767840051       -3.5515395998
 C         -0.3136641057        3.1268063663       -2.6984840539
 O          0.2488141832        4.2398008629       -2.1972404255
 C          0.2073667645        1.8824320244       -2.1024309916
 C          1.1717133345        1.8964893048       -1.0971253697
 C          1.6117239146        0.7105539083       -0.5488183466
 C          1.0869957845       -0.5095811265       -0.9758937480
 C          1.5567371996       -1.7620707986       -0.3660311905
 C          0.7234463090       -2.7518222499        0.0136776638
 C         -0.7211142898       -2.7499560375       -0.0019405553
 C         -1.5533924202       -1.7566841124        0.3712445257
 C         -3.0075665840       -1.9004939140        0.2182067404
 C         -3.8720664387       -1.3873552266        1.1851522387
 C         -5.2402678691       -1.5224289278        1.0487602251
 C         -5.7709345235       -2.1631454025       -0.0589736177
 C         -4.9228367480       -2.6692697708       -1.0298847243
 C         -3.5535217972       -2.5415253768       -0.8929412103
 C         -1.0848610953       -0.5011033349        0.9752537602
 C         -1.6154203451        0.7165012751        0.5477755068
 C         -1.1784298987        1.9051378603        1.0927195176
 C         -0.2105195775        1.8968174756        2.0947151809
 C          0.3068870496        3.1440235989        2.6880459939
 O          1.1606265549        3.1980539608        3.5402878256
 O         -0.2582652643        4.2544227202        2.1844155635
 C          0.2967366299        0.6807531796        2.5519314896
 C         -0.1381176940       -0.5034836737        1.9997777015
 C          3.0109546776       -1.9027364689       -0.2125730019
 C          3.5585747407       -2.5369012618        0.9017185227
 C          4.9283473570       -2.6561074155        1.0415218686
 C          5.7752429088       -2.1485388730        0.0703033908
 C          5.2428311849       -1.5164630923       -1.0415516865
 C          3.8741534710       -1.3898547629       -1.1808493837
 C          0.1441644642       -0.5179078990       -2.0038461592
 C         -0.2931712688        0.6636659959       -2.5598550224
 H         -0.1402847497        5.0183238950       -2.6248221160
 H          1.5680708164        2.8385560210       -0.7528335513
 H          2.3549125198        0.7214390204        0.2347776005
 H          1.1653555183       -3.6907558125        0.3289168712
 H         -1.1654731883       -3.6893680962       -0.3123893018
 H         -3.4621309363       -0.8920200274        2.0536761104
 H         -5.8966450524       -1.1253279476        1.8091985958
 H         -6.8406065312       -2.2636985269       -0.1671410199
 H         -5.3313338292       -3.1613550309       -1.9005188834
 H         -2.8996866798       -2.9208524634       -1.6646509213
 H         -2.3608919625        0.7233011921       -0.2337468059
 H         -1.5793682793        2.8451315545        0.7479121353
 H          0.1291946466        5.0348835394        2.6100049355
 H          1.0320553218        0.6919576875        3.3423781022
 H          0.2480446982       -1.4447331611        2.3613353133
 H          2.9054430093       -2.9168853482        1.6736910735
 H          5.3381431797       -3.1426546844        1.9146606101
 H          6.8452726892       -2.2419246904        0.1810919014
 H          5.8982104502       -1.1187421067       -1.8025262305
 H          3.4629480755       -0.8995168520       -2.0515970946
 H         -0.2373284345       -1.4614327884       -2.3645029919
 H         -1.0250563859        0.6706381654       -3.3535169361
