  94
       -139.22297351
 C          8.1106855347       -1.5934070664       -0.2597937066
 C          8.8514587844       -0.5548362983        0.6018950783
 C          8.0631330217       -0.2689361248        1.8928889389
 C         10.1869327049       -1.1677629245        1.0063366107
 C         10.2271833127       -2.3468561608        1.7384556812
 C         11.4221166351       -2.9308631028        2.1205337816
 C         12.6223860905       -2.3366218618        1.7709636953
 C         12.6128495961       -1.1659977801        1.0429958222
 C         11.4053177129       -0.5821121983        0.6607477527
 N         11.4190670067        0.5818210303       -0.0652135087
 C         10.2890896909        1.2395813812       -0.4867774578
 C         10.4673770973        2.4164776104       -1.2134010679
 C          9.3793055413        3.1262924715       -1.6686916733
 C          8.1122892521        2.6550261125       -1.3927929097
 C          7.9199016385        1.4801699153       -0.6656369368
 C          6.4844347444        1.1535246556       -0.4757319057
 C          5.7754540565        1.6939394795        0.5928072563
 C          4.4198019455        1.4673033609        0.7307447348
 C          3.7299400568        0.7078467167       -0.2122048369
 C          2.2925405564        0.4368477656       -0.0969349424
 C          1.6445352785        0.4200222800        1.1651381734
 C          0.3059540342        0.1645355673        1.2343116864
 C         -0.4072097600       -0.0779362417        0.0390743787
 N         -1.7256205249       -0.3191967897        0.0808612940
 C         -2.3726080540       -0.5456272485       -1.0412692544
 C         -3.8139290970       -0.7934148285       -0.9210994129
 C         -4.3176818978       -1.3047377829        0.2748635287
 C         -5.6679650204       -1.5426655639        0.4277358037
 C         -6.5605377188       -1.2495893476       -0.6000137355
 C         -7.9969991366       -1.6025189417       -0.4765020203
 C         -8.2640719165       -2.9105195217       -0.8817594294
 C         -9.5440033080       -3.4240893143       -0.8445384139
 C        -10.5700541854       -2.6218026460       -0.3989963296
 C        -10.3166768114       -1.3128050014        0.0098067647
 C         -9.0215829473       -0.7699834477       -0.0168658924
 C         -8.7799705732        0.6674384185        0.4460153011
 C         -7.8218791658        0.6589350485        1.6508939672
 C         -8.1761604413        1.4831716252       -0.7116136673
 C        -10.0588114428        1.3708890563        0.8849545137
 C        -10.0220126883        2.6861610090        1.3284919954
 C        -11.1643294542        3.3548145427        1.7321836957
 C        -12.3885464169        2.7096076005        1.7000017431
 C        -12.4545612600        1.4022428099        1.2676971185
 C        -11.2995951203        0.7330586283        0.8635405261
 N        -11.3878962001       -0.5694990320        0.4419526343
 C         -6.0556874959       -0.7643923436       -1.8025341365
 C         -4.7032685434       -0.5313941064       -1.9611724919
 C         -1.7175677298       -0.5689711207       -2.2993483016
 C         -0.3758162222       -0.3290304530       -2.3671951713
 C          0.3330888463       -0.0597880324       -1.1750168468
 N          1.6498415829        0.1913469981       -1.2174978019
 C          4.4304442048        0.2159842681       -1.3135792892
 C          5.7852610195        0.4402953817       -1.4460822923
 C          9.0091439720        0.7412080089       -0.1944765413
 H          7.0840643942       -1.2915956406       -0.4374376434
 H          8.6156098321       -1.7070126410       -1.2175085063
 H          8.0976690897       -2.5612505699        0.2335115899
 H          8.5168916820        0.5639390685        2.4272751170
 H          8.0714948850       -1.1357781170        2.5475355565
 H          7.0299403018       -0.0238742219        1.6717862784
 H          9.3067449685       -2.8339171947        2.0248944261
 H         11.4142328873       -3.8478649496        2.6900068186
 H         13.5606282696       -2.7836502333        2.0638619729
 H         13.5399529118       -0.6871128530        0.7594698008
 H         12.3127602110        0.9861216564       -0.2993539227
 H         11.4727241578        2.7605042187       -1.4130691588
 H          9.5160078729        4.0367659946       -2.2323220052
 H          7.2438560600        3.1954152798       -1.7399226240
 H          6.2960501714        2.3020884317        1.3189777892
 H          3.8945628048        1.9129488655        1.5624794378
 H          2.2181341565        0.5851260396        2.0640978186
 H         -0.2275518871        0.1365425408        2.1726424560
 H         -3.6256388679       -1.5184224989        1.0742992602
 H         -6.0425574412       -1.9640970452        1.3498196190
 H         -7.4435909628       -3.5211802181       -1.2292277650
 H         -9.7385234555       -4.4377746291       -1.1606689603
 H        -11.5839915018       -2.9950682116       -0.3595988472
 H         -6.8320578059        0.3243796558        1.3593309714
 H         -8.2053872989       -0.0043699999        2.4243461215
 H         -7.7303600602        1.6555895137        2.0733913509
 H         -7.1611622850        1.1651346754       -0.9239137421
 H         -8.7807893752        1.3584077208       -1.6082814235
 H         -8.1525580541        2.5406183683       -0.4643046738
 H         -9.0812183306        3.2152451442        1.3653681149
 H        -11.0969132312        4.3776812779        2.0705102214
 H        -13.2865399235        3.2223066440        2.0109297590
 H        -13.4011656331        0.8803408573        1.2368769125
 H        -12.2966353372       -1.0066848837        0.4344345342
 H         -6.7348961832       -0.5679287713       -2.6200231052
 H         -4.3463326925       -0.1229898510       -2.8949717656
 H         -2.2788135478       -0.8001124744       -3.1915436199
 H          0.1648608934       -0.3420780501       -3.3017595681
 H          3.8874384235       -0.3432971943       -2.0592321070
 H          6.3145266483        0.0635127879       -2.3097698558
