94
 energy: -139.223090358387 gnorm: 0.000051155251 xtb: 6.7.1 (edcfbbe)
C            8.11356813001188       -1.60285820548174       -0.23312432574628
C            8.86633247506271       -0.55848099257787        0.61096568763696
C            8.09398326243594       -0.26172953820268        1.90913303904848
C           10.20637164827172       -1.16826589121837        1.00507235293928
C           10.25538339947779       -2.34397894704645        1.74208481752018
C           11.45481150583695       -2.92415635796642        2.11589160087975
C           12.65091334829368       -2.32919324908659        1.75347143708147
C           12.63264662742431       -1.16110687441195        1.02160227349192
C           11.42065277758391       -0.58109198782312        0.64771970323493
N           11.42608069250501        0.58137908146245       -0.08060551230791
C           10.29139606368012        1.23314536560520       -0.49871195903283
C           10.46152432568657        2.40693565083716       -1.23222489015323
C            9.36844465700790        3.11161336028436       -1.68349079764183
C            8.10475790614305        2.63752193194245       -1.39758193873787
C            7.92052134708748        1.46504473535635       -0.66435199179257
C            6.48677514711481        1.13494984840578       -0.46723197535906
C            5.77790047430404        1.68594268478258        0.59596782572064
C            4.42215018164844        1.46087642573910        0.73629943634437
C            3.73202170482726        0.69285116999605       -0.19942059039475
C            2.29304184650288        0.42950485591560       -0.08548754888007
C            1.64087980516856        0.42625399552457        1.17448077429652
C            0.30041884858748        0.17967040878117        1.24116154796209
C           -0.41051494638187       -0.06735360619079        0.04547518506405
N           -1.73044828087697       -0.30116198501756        0.08461404838537
C           -2.37499771665517       -0.53200578986322       -1.03803321836953
C           -3.81743702760490       -0.77525848507984       -0.92156416388306
C           -4.32645375281516       -1.28017493529417        0.27496111973367
C           -5.67710589271148       -1.51858068890088        0.42286272444495
C           -6.56552786468318       -1.23266591332210       -0.61063149116285
C           -8.00138034464339       -1.58990458036798       -0.49136565266930
C           -8.26357187238042       -2.89750019183487       -0.90111153789921
C           -9.54111882488296       -3.41695701624958       -0.86358184443661
C          -10.56973057347312       -2.62145604621402       -0.41184267745352
C          -10.32151047932412       -1.31260382033463        0.00064193671594
C           -9.02931081372837       -0.76312160560108       -0.02866528547268
C           -8.79453489199851        0.67604841627921        0.43232694704438
C           -7.82008393727789        0.67668265400656        1.62415429006258
C           -8.21420208216971        1.49639863702711       -0.73388676461570
C          -10.07390688748564        1.36825421060952        0.88739541210084
C          -10.04217066324231        2.68183779464695        1.33625568510180
C          -11.18463919586564        3.33917406200966        1.75770679115439
C          -12.40376418935046        2.68391837799748        1.73880603070259
C          -12.46526835365833        1.37911198407618        1.29819419328473
C          -11.31044407287354        0.72204538429877        0.87429104970040
N          -11.39494308181692       -0.57634234144687        0.43932601313903
C           -6.05574754912803       -0.75220191887434       -1.81292095533019
C           -4.70269754671445       -0.51848253572736       -1.96636229687502
C           -1.71612873058643       -0.56668235876641       -2.29388058831690
C           -0.37276771651850       -0.33534471554528       -2.35893842859663
C            0.33389969578287       -0.06266850733859       -1.16623914533266
N            1.65233407594653        0.17967196862284       -1.20623616212811
C            4.43303212475877        0.18719030971148       -1.29420845909224
C            5.78792393743916        0.40947469929026       -1.42874215437453
C            9.01488349532404        0.73213269081238       -0.19583070472395
H            7.08103946781133       -1.30845220515606       -0.38774466175921
H            8.59747336346441       -1.71437089594694       -1.20190186425804
H            8.11821127949808       -2.57029272120901        0.26107799822078
H            8.56574140470934        0.56309884272006        2.44050672130370
H            8.09443038994761       -1.12993767716272        2.56211806829929
H            7.06287761809038        0.00019908921436        1.69722066923318
H            9.33852250999279       -2.83130908538583        2.03924614066728
H           11.45358933656058       -3.83902384360724        2.68883782388735
H           13.59257461570631       -2.77334326602044        2.03966091602537
H           13.55618581409257       -0.68093355083540        0.72869731975518
H           12.31700074477759        0.98539018907333       -0.32553552693471
H           11.46456189945853        2.75291615071066       -1.43987777341674
H            9.49874737582604        4.02025992153535       -2.25154901750103
H            7.23245788072949        3.17371651214217       -1.74150878071723
H            6.29838182008900        2.30244821302477        1.31525735538321
H            3.89697194814631        1.91531338696876        1.56332748855014
H            2.21273414279964        0.59477475829732        2.07395970870083
H           -0.23612687098333        0.16229775292552        2.17800683960963
H           -3.63807017257485       -1.48889991587479        1.07886618065764
H           -6.05539619315291       -1.93470837056028        1.34575099621737
H           -7.44092288760990       -3.50360476528478       -1.25146920423365
H           -9.73177388884146       -4.43037179256464       -1.18293021757452
H          -11.58178456475451       -2.99956312170604       -0.37055661160565
H           -6.82491002249342        0.37609878337583        1.31453365530027
H           -8.17361610369141       -0.00945265042004        2.39191443969809
H           -7.75154748890768        1.66849292939239        2.06200332936255
H           -7.20823963519067        1.17079250004317       -0.97600424329967
H           -8.84377124663429        1.38468777597455       -1.61507790447769
H           -8.17424691243202        2.55131673142180       -0.47776845597726
H           -9.10542388189687        3.21865856617879        1.36308178056890
H          -11.12121435080139        4.36093449434383        2.10011590466055
H          -13.30138496140479        3.18718897242042        2.06576135145291
H          -13.40794410650064        0.84978674120482        1.27593488312331
H          -12.30033567094834       -1.02043412422810        0.43993794881668
H           -6.73092129810630       -0.56143928478241       -2.63516407214499
H           -4.34224064815758       -0.11456700592729       -2.90081180053598
H           -2.27590153233827       -0.80007770467112       -3.18640395498451
H            0.17075273981512       -0.35781306711033       -3.29165288160196
H            3.88998091712677       -0.37955181640950       -2.03418329386908
H            6.31728069670678        0.02327756530723       -2.28817993395746
