94
 energy: -139.165859557700 gnorm: 0.000117649674 xtb: 6.7.1 (edcfbbe)
C            8.10409004570876       -1.52311724711668       -0.35418796299930
C            8.86915420420290       -0.53690722946960        0.54659479546902
C            8.10758182511110       -0.31674313042029        1.86654128002362
C           10.20745566662754       -1.17603474355991        0.89474069452179
C           10.25515786522201       -2.39684529999482        1.55433186658945
C           11.45418093701416       -2.99927551400714        1.89290462992005
C           12.65170440034522       -2.38213417039603        1.57280931038340
C           12.63539292143064       -1.17129046539317        0.91471676770694
C           11.42339885100868       -0.56913910807636        0.57493642739136
N           11.42975039347392        0.63380982087876       -0.08200933900515
C           10.29590799330898        1.30694193126251       -0.46910511873705
C           10.47030717483015        2.51224009311373       -1.14906493018669
C            9.37867515256943        3.23898593233970       -1.56717698879359
C            8.11395429074338        2.75739734663532       -1.29688900606301
C            7.92438621520671        1.55596169872750       -0.61361376363480
C            6.49093847372355        1.22673284733367       -0.41300666433156
C            5.81427800458847        1.67214617475028        0.71971213687438
C            4.46235190391435        1.44624945690118        0.87371039724019
C            3.73011090605871        0.78578115494238       -0.11690539839392
C            2.30931851218834        0.51848792989356        0.01298585180253
C            1.62390473692425        0.50832024408613        1.22805027812509
C            0.27457543877859        0.22199596880180        1.26749644458099
C           -0.43068226796266       -0.04881647540995        0.07939763382838
N           -1.70809456101040       -0.31626221370353        0.03815105385335
C           -2.40648151078293       -0.54914361451691       -1.08643605062325
C           -3.82387392916096       -0.82372022091986       -0.93699744069503
C           -4.31829276458234       -1.18271596478202        0.32274676316672
C           -5.65733344645179       -1.44373325456739        0.51332017292790
C           -6.56238545510670       -1.32388378505040       -0.53893310414753
C           -7.98864334711198       -1.69353449945046       -0.35893643204653
C           -8.24272913711018       -3.03289268456211       -0.65533921970284
C           -9.50949335595051       -3.56770942671321       -0.53789324592077
C          -10.53794451615524       -2.75482765463373       -0.11831576348148
C          -10.29952417263426       -1.41272230623078        0.17754174276884
C           -9.01910797914746       -0.84691447269044        0.06258550940355
C           -8.80182578135562        0.63224994844735        0.38287179292308
C           -7.79728246750672        0.76568548601111        1.54218803566259
C           -8.26809646429814        1.34650625178288       -0.87183746245843
C          -10.08154285000929        1.34225883713581        0.80595673932285
C          -10.06582850190667        2.69399501214066        1.12272607176604
C          -11.20882221892773        3.36597264984729        1.51920459070463
C          -12.41277128556792        2.68777037387691        1.60861928201951
C          -12.45941775831783        1.34599318539840        1.29729176302563
C          -11.30387956260583        0.67395751615526        0.89717119767298
N          -11.37280214067743       -0.65995377464273        0.58954830912294
C           -6.07089178747721       -1.00054664586157       -1.80136635995525
C           -4.72895329112973       -0.74826129063102       -1.99934589257813
C           -1.72370538150021       -0.53061948129255       -2.30268654791454
C           -0.36695379609816       -0.27781372883512       -2.33967141057073
C            0.34390458583580       -0.01903191646166       -1.15184783130934
N            1.62400601136717        0.23886945006528       -1.10885776869127
C            4.40277118576484        0.39488448935747       -1.28059516393384
C            5.75535894554101        0.61467929735928       -1.42581016550228
C            9.01837100498473        0.79648916655791       -0.18639380672099
H            7.08965538080315       -1.18113267860583       -0.52933143533015
H            8.61283204084478       -1.62087157419133       -1.31174375711935
H            8.05508721638111       -2.50540611390051        0.10705518031795
H            8.56102654966237        0.50056005393544        2.42475042225528
H            8.14533203742277       -1.20979212237637        2.48397920663700
H            7.06606104950619       -0.08029895845642        1.67836257936713
H            9.33777449768566       -2.90194301287002        1.81765095053799
H           11.45199274317559       -3.94854948635589        2.40671503944733
H           13.59235501893478       -2.84303678364568        1.83444179339074
H           13.55941608397508       -0.67376786606744        0.65434022820054
H           12.32129392497485        1.04769542710062       -0.30879885983181
H           11.47439182078391        2.86324483469421       -1.34289186796662
H            9.51069870076872        4.17050142454048       -2.09644499369912
H            7.24303182531709        3.31268060631051       -1.61278064147390
H            6.35887326204978        2.21030545240808        1.48286060358742
H            3.96786108883795        1.81274712729702        1.76070266503431
H            2.15914400566723        0.70126010943064        2.14373481262052
H           -0.26525587783285        0.20099701719411        2.20037705450574
H           -3.62300712933024       -1.26385131982380        1.14469596473227
H           -6.01415656125984       -1.74986330816552        1.48662375100475
H           -7.42015175695352       -3.65310624945892       -0.98001620626977
H           -9.69160844566456       -4.60607590503018       -0.77010089236827
H          -11.54152368799764       -3.14337836787876       -0.01429694472845
H           -6.79740933993589        0.49324266562321        1.22272578819920
H           -8.09411110427428        0.11968710795650        2.36665539560117
H           -7.76811879693965        1.78828046974803        1.90771787937537
H           -7.28667653593669        0.97214328337671       -1.14252468238426
H           -8.94866274285440        1.18701687898497       -1.70656528654660
H           -8.18609447919254        2.41578673991839       -0.69900674597093
H           -9.14170513542227        3.24943370388647        1.06342379952357
H          -11.15785558076363        4.41722628835068        1.75877973185629
H          -13.30960521057056        3.20266208058541        1.91891690907459
H          -13.38972198684442        0.79843716753959        1.35947571200811
H          -12.26885240989101       -1.11837968143838        0.65708066569383
H           -6.75670282911192       -0.94369097398244       -2.63539925783126
H           -4.38722419997984       -0.47584826255101       -2.98657273120644
H           -2.25613663403110       -0.73792544467627       -3.21693493285462
H            0.17372988799495       -0.27085539334565       -3.27234069183933
H            3.83892785894165       -0.08738048317086       -2.06487602319600
H            6.25748148890768        0.31128790858214       -2.33398565300695
