94
 energy: -139.166486370948 gnorm: 0.000050014136 xtb: 6.7.1 (edcfbbe)
C            8.06388543183897       -1.22373148278566       -1.04265684517333
C            8.93842391557864       -0.64658859080167        0.08513580649462
C            8.32773178896058       -0.97850715081260        1.45869518282703
C           10.29571149076914       -1.33409973623268        0.00918498878698
C           10.39562966438329       -2.71310952556976        0.13576782325102
C           11.61325503510871       -3.36763272836194        0.07051210029487
C           12.77696485510597       -2.64349909018660       -0.12647610106421
C           12.70861891045308       -1.27304813054870       -0.25550982516648
C           11.47813627348157       -0.61854026122219       -0.18858392343451
N           11.43291605749645        0.74512854869590       -0.31904828426104
C           10.27740719112139        1.48693226261786       -0.26530243043691
C           10.39901149492335        2.86880919839417       -0.41043185329079
C            9.28293977941496        3.67327066581386       -0.36715593572070
C            8.04697252505443        3.08889660389418       -0.17935254754005
C            7.91015293594932        1.70811385771174       -0.03330877393635
C            6.49893479561405        1.28793328220490        0.15425459666983
C            5.92204481336068        1.28824912799936        1.42179258880694
C            4.58386082350948        1.00244686023870        1.59563925597658
C            3.76180212712007        0.72274618698635        0.49927941494654
C            2.34900535172171        0.41979605841226        0.62116522470603
C            1.65280026343743        0.31797274804584        1.82774919931901
C            0.30323851992194        0.03616228548403        1.83855348538563
C           -0.39712252962173       -0.15406468283374        0.63061994693500
N           -1.67360898522911       -0.41535759962270        0.56218525205365
C           -2.36015530779872       -0.60301384502446       -0.57934092076936
C           -3.77994038422798       -0.87223648018279       -0.45952250468370
C           -4.36663173136936       -0.87341348361058        0.81324796334974
C           -5.71305979199529       -1.11030589065090        0.97830910874557
C           -6.53659592869328       -1.33748050430353       -0.12251527460429
C           -7.96549173953878       -1.69416059771835        0.06250787331484
C           -8.16268060806252       -3.06402505151470        0.23851839065909
C           -9.42419093793178       -3.59046324133558        0.42804351053781
C          -10.50494265294240       -2.73818607139490        0.44272082284297
C          -10.32288055191209       -1.36641266895780        0.26780755511654
C           -9.04844829331631       -0.80925524371447        0.07268548903436
C           -8.89081591827093        0.69951521490987       -0.11737849374868
C           -7.99860452018574        1.26363381825662        1.00310039859518
C           -8.25924375625343        0.97483725036847       -1.49402396581870
C          -10.21758077608789        1.44635051340246       -0.06545690720368
C          -10.25680264481505        2.82554518282579       -0.22031715315278
C          -11.44536366173342        3.53319324255435       -0.17779510941484
C          -12.64070524121392        2.86405116417673        0.02418882486282
C          -12.63270169655110        1.49478492434607        0.18078129581839
C          -11.43126183503916        0.78656717247701        0.13671616207208
N          -11.44596622995437       -0.57494457732435        0.29402834767070
C           -5.95185862351775       -1.38477728545869       -1.38553433788805
C           -4.60362526814207       -1.14804530423040       -1.55564023770365
C           -1.66106984898211       -0.51516263120903       -1.78535612656270
C           -0.30991037969179       -0.24113507787649       -1.79580931731393
C            0.38893659217471       -0.04414226234310       -0.58809895669893
N            1.66381174658311        0.22489976507485       -0.51997611368545
C            4.34048404608345        0.76387084158527       -0.77649215265554
C            5.67682784049470        1.05001467963064       -0.94535102394846
C            9.02985038192677        0.87125865310287       -0.07233643228752
H            7.03104220653921       -0.91226617677107       -0.93047197542773
H            8.43246633427704       -0.88302018400869       -2.00873325909915
H            8.09260654980743       -2.30963164898358       -1.03242510107584
H            8.88626610496278       -0.47284699488384        2.24462983692964
H            8.36746067593535       -2.04745677652368        1.64794999605155
H            7.29042818773852       -0.66540022961650        1.50701507443407
H            9.50557723179118       -3.30482212885531        0.28979333416697
H           11.65192832755096       -4.44143980050347        0.17331138445303
H           13.73172794857957       -3.14487589988086       -0.17904547684124
H           13.60552590615551       -0.68918803396474       -0.40988541120585
H           12.30121602027079        1.23900883350505       -0.45953334871869
H           11.38169081730461        3.29527257046602       -0.55682452096686
H            9.37393515270162        4.74311643527642       -0.47869040151785
H            7.15759876684680        3.70077419711596       -0.14307622244830
H            6.53581698084811        1.52252999516326        2.28053563536104
H            4.17832718217296        1.01032397597296        2.59578428257571
H            2.17364040438108        0.45947086526271        2.76065387048059
H           -0.24256710744398       -0.04296240377875        2.76493806239321
H           -3.73488330338024       -0.68772249158819        1.66886515369498
H           -6.14120119242132       -1.12402696935369        1.97090195782712
H           -7.30017150787649       -3.71406947759231        0.22416742751761
H           -9.56208510980481       -4.65257890090691        0.56288799416302
H          -11.50624550014121       -3.11874006472648        0.58947878795100
H           -8.38802662832892        0.96217168625262        1.97402278978132
H           -7.97902995489209        2.34919033448603        0.96767184859408
H           -6.97986527862738        0.90445981364191        0.90581270847423
H           -8.25219121759873        2.04015602164564       -1.70646661896334
H           -7.23609052954740        0.61671605038233       -1.52931166867074
H           -8.83495376335699        0.47654938704889       -2.27223102903531
H           -9.34094595808692        3.37508171127054       -0.37922248619332
H          -11.43674410047793        4.60537754247830       -0.30219966874499
H          -13.57319064885250        3.40714823659337        0.05925914949140
H          -13.55515573768139        0.95341855181169        0.33939637820620
H          -12.33565847156449       -1.02789264068129        0.43855731478164
H           -6.56796957697312       -1.61491657490333       -2.24372280607841
H           -4.19208537471301       -1.19011151441319       -2.55248026265273
H           -2.18192937869345       -0.65662292012727       -2.71825911577832
H            0.23725324132948       -0.16831876957512       -2.72191030586899
H            3.70970928055952        0.57264884623906       -1.63161244653241
H            6.09728313975226        1.09711684180971       -1.94020101280820
