  94
       -139.16086251
 C          8.0235627624       -1.1991805720       -1.0098562808
 C          8.9180118696       -0.6191593386        0.1004398823
 C          8.3365243825       -0.9556225377        1.4853580365
 C         10.2761468441       -1.3007232263       -0.0029623370
 C         10.3833865685       -2.6804357715        0.1076064013
 C         11.6024499901       -3.3293170381        0.0157805073
 C         12.7606645184       -2.5987094950       -0.1906410783
 C         12.6856719647       -1.2270190382       -0.3007639322
 C         11.4535785600       -0.5782066254       -0.2076008538
 N         11.4018782632        0.7865422131       -0.3186152782
 C         10.2436603521        1.5228644665       -0.2469895834
 C         10.3592803344        2.9068819266       -0.3774498264
 C          9.2400160613        3.7059131734       -0.3198353969
 C          8.0072809350        3.1135474956       -0.1346241206
 C          7.8762253986        1.7308054145       -0.0018499252
 C          6.4673219489        1.3014327953        0.1821237895
 C          5.8879028936        1.2872183868        1.4485179783
 C          4.5519362733        0.9893543814        1.6175430692
 C          3.7327240728        0.7116723820        0.5174111651
 C          2.3245122274        0.3951091170        0.6315744879
 C          1.6106159731        0.3455808537        1.8353203403
 C          0.2670410245        0.0536951004        1.8424970549
 C         -0.4183516089       -0.2025196506        0.6335481921
 N         -1.6908242948       -0.4733694361        0.5662565000
 C         -2.3599023969       -0.7183862174       -0.5745348062
 C         -3.7797697058       -0.9789534564       -0.4642131193
 C         -4.3736498596       -0.9738155515        0.8065641541
 C         -5.7235428635       -1.1900599929        0.9649454249
 C         -6.5460019132       -1.4013220017       -0.1405325627
 C         -7.9843660633       -1.7204662720        0.0385021400
 C         -8.2236679067       -3.0846680984        0.2051962868
 C         -9.5004398504       -3.5741123961        0.3936096615
 C        -10.5544218365       -2.6893342473        0.4188212649
 C        -10.3305029889       -1.3224848791        0.2524037156
 C         -9.0403917098       -0.8032107440        0.0554679947
 C         -8.8391485183        0.7003123284       -0.1343431171
 C         -7.9220740257        1.2389129099        0.9784413785
 C         -8.2105476566        0.9550180004       -1.5162979678
 C        -10.1420435177        1.4866868385       -0.0723153962
 C        -10.1406455008        2.8666389288       -0.2253759629
 C        -11.3066969192        3.6099116601       -0.1709110160
 C        -12.5202602131        2.9773565594        0.0416176917
 C        -12.5529682573        1.6082578610        0.1949029419
 C        -11.3739237205        0.8636543388        0.1380359184
 N        -11.4286161403       -0.4969692764        0.2900608546
 C         -5.9554294732       -1.4602754097       -1.4004676771
 C         -4.6030580036       -1.2445796003       -1.5642774260
 C         -1.6412455736       -0.6918332234       -1.7762126483
 C         -0.2948033937       -0.4130625225       -1.7822660174
 C          0.3886001924       -0.1456936712       -0.5745131852
 N          1.6584489377        0.1381420424       -0.5083575177
 C          4.3148484170        0.7677831307       -0.7574869360
 C          5.6482712013        1.0665420677       -0.9212043421
 C          8.9999474067        0.8996055846       -0.0526457006
 H          6.9930169679       -0.8879749545       -0.8796615418
 H          8.3744424435       -0.8610605245       -1.9832552677
 H          8.0523454756       -2.2848533270       -0.9970969180
 H          8.9199220522       -0.4638820264        2.2620033734
 H          8.3674123697       -2.0266481091        1.6639388236
 H          7.3049107944       -0.6297623383        1.5607001378
 H          9.4984512827       -3.2774292644        0.2699159624
 H         11.6464806665       -4.4041100819        0.1050022457
 H         13.7160024277       -3.0960550063       -0.2645281728
 H         13.5778590900       -0.6376644394       -0.4607949998
 H         12.2664135295        1.2855691715       -0.4639095941
 H         11.3395107820        3.3389538757       -0.5238349292
 H          9.3259514425        4.7773386738       -0.4192745256
 H          7.1152290265        3.7209171415       -0.0894564752
 H          6.4978821625        1.5195066803        2.3107069242
 H          4.1463010874        0.9813437638        2.6177637476
 H          2.1174996228        0.5430494563        2.7660258350
 H         -0.2932629191        0.0177118118        2.7632267693
 H         -3.7420151172       -0.7975144294        1.6641262692
 H         -6.1569615935       -1.1972273343        1.9553820361
 H         -7.3815094858       -3.7606423153        0.1845364086
 H         -9.6704165799       -4.6325371171        0.5202133501
 H        -11.5665041838       -3.0397264019        0.5669147200
 H         -8.3082664648        0.9431817750        1.9523914719
 H         -7.8770600054        2.3238005839        0.9468380472
 H         -6.9133102745        0.8563620935        0.8692515967
 H         -8.1681795779        2.0196309897       -1.7280810504
 H         -7.2008086174        0.5613825717       -1.5601879134
 H         -8.8095554175        0.4776409403       -2.2899959887
 H         -9.2099904826        3.3880795160       -0.3928093993
 H        -11.2667298701        4.6815508552       -0.2940728771
 H        -13.4350030010        3.5489867527        0.0871161395
 H        -13.4899763549        1.0948206625        0.3607927849
 H        -12.3308469857       -0.9235456579        0.4383352940
 H         -6.5711325115       -1.6798979405       -2.2618808954
 H         -4.1887355118       -1.2892364928       -2.5598919785
 H         -2.1486187875       -0.8892688716       -2.7067724116
 H          0.2675610584       -0.3876126504       -2.7022025211
 H          3.6862910749        0.5778861930       -1.6143837633
 H          6.0707876497        1.1242514259       -1.9147418182
