69
 energy: -105.962574813125 gnorm: 0.000056045585 xtb: 6.7.1 (edcfbbe)
C           -5.77218070173114       -4.52657531617928        0.37354577272462
C           -4.80024307230746       -5.34981510430559        0.91710116921834
C           -3.46111342053187       -5.04325519544626        0.76073452928108
C           -3.07246726700368       -3.90459482579169        0.05898162247919
C           -1.65021571886479       -3.56155875048967       -0.09394513710348
C           -0.68316430771354       -4.54088405811583       -0.32067262086815
C            0.65172063023043       -4.19827608662285       -0.45431648474127
C            1.05104158803867       -2.87772379462038       -0.36737613975556
C            0.09593526680101       -1.88878786357152       -0.14766413701060
C            0.47227720316768       -0.47506070127691       -0.06343386508623
N           -0.50468004719858        0.40642889736357       -0.01324867058945
C           -0.18504865327751        1.74370438226212        0.06794477757587
C           -1.25409391639902        2.69278411729486        0.12112789784185
C           -1.01612097999508        4.06676815128518        0.27055406679280
C           -2.07984928582513        4.94081772384360        0.32447526883102
C           -3.38532056930908        4.48109094238871        0.22775077282128
C           -3.64374298346104        3.11699528290801        0.07258111490650
C           -5.01889830332700        2.60710245408502       -0.04438776731385
C           -5.38395430041427        1.40975543090377        0.56824611249545
C           -6.66970679360255        0.91768966860570        0.44523530136034
C           -7.61345221586871        1.61268969766936       -0.29261462916264
C           -7.26272844296572        2.80442827777059       -0.90459018437717
C           -5.97730956682138        3.29859116969726       -0.78142731198483
C           -2.57498018256322        2.23834379785204        0.02241528250829
N            1.08452458645604        2.08788857471992        0.09786662846571
C            2.05910033483889        1.19957851294784        0.04242578842449
C            3.43371818598638        1.59371124640710        0.06509788966096
C            3.78981431626508        2.94939903273337        0.14237703919533
C            5.11852058513749        3.30956790726127        0.16129370521406
C            6.11439456885421        2.34559050337676        0.10701503930231
C            5.78194257052060        0.99123292322670        0.02893314044891
C            6.83436695232388       -0.03520030337292       -0.03253289113819
C            6.71391645976368       -1.12258937101616       -0.89472507726160
C            7.70435109124340       -2.08492545290299       -0.95671413061956
C            8.82873106170624       -1.98003101293015       -0.15499350913646
C            8.95724008610396       -0.90493115721300        0.70832621543790
C            7.97005241744757        0.06113506214785        0.76786809072996
C            4.44562633093249        0.62711112177664        0.00799368986379
N            1.74287821110967       -0.14143442397099       -0.04596344607489
C           -1.24365363372039       -2.23631483271086       -0.01000072732805
C           -4.05903513213022       -3.08375100481498       -0.48440460031275
C           -5.39708701358463       -3.39336872610611       -0.32879188491906
H           -6.81764490210541       -4.76753577173420        0.49709200212063
H           -5.08730214173033       -6.23321790528827        1.46872227805086
H           -2.70935290364531       -5.67876262537037        1.20584475664839
H           -0.98248491577011       -5.57476876471921       -0.41074920249668
H            1.38657502373330       -4.96977587010865       -0.63166167581029
H            2.08788176362671       -2.59867641199729       -0.47129355694449
H            0.00158499381081        4.41764061615586        0.34483761966147
H           -1.89709183219156        5.99883318170202        0.44685489515438
H           -4.20735122058496        5.17808104541218        0.29292182991298
H           -4.65882729765454        0.87106013813752        1.16086017021514
H           -6.93661813251110       -0.01108594973458        0.92908028365772
H           -8.61802311095978        1.22785860570460       -0.39004536236392
H           -7.99408082555632        3.34958275387503       -1.48376043532625
H           -5.70575856134119        4.21868342423772       -1.27826576765961
H           -2.74134460130601        1.18148420135791       -0.12072276800808
H            3.00789965343354        3.69191026165656        0.18499100780999
H            5.39045548329604        4.35398589505022        0.21593797885278
H            7.15261519189040        2.64208165975699        0.10267708719784
H            5.84624513859054       -1.19987543249752       -1.53383422685834
H            7.60080678590897       -2.91979996768906       -1.63490046583014
H            9.60166666937595       -2.73298173335574       -0.20287331570275
H            9.83048399188226       -0.82010241563018        1.33901042604273
H            8.06828731935411        0.88927251641076        1.45479261993776
H            4.16084049009892       -0.41349680848772       -0.02985538228810
H           -1.96261916507008       -1.45573958995551        0.18559210813328
H           -3.77494428100243       -2.20810015467104       -1.04950973766152
H           -6.14924521046456       -2.74769604316526       -0.75842470647888
