69
 energy: -106.043246301066 gnorm: 0.000040410035 xtb: 6.7.1 (edcfbbe)
C           -5.72783175322823       -4.61608543659303        0.35604502903140
C           -4.74161093059311       -5.43037734743912        0.88705484688732
C           -3.40776673898876       -5.10284761043535        0.72772532797634
C           -3.03815264020540       -3.95185013336970        0.03599086105196
C           -1.62188063392094       -3.58755245244582       -0.12389272463373
C           -0.64586251678510       -4.55271223760320       -0.37102243095652
C            0.68329059802174       -4.19275769172194       -0.51630872037133
C            1.06618877528892       -2.86809058281975       -0.42036137723731
C            0.10261702317480       -1.89212133565927       -0.17887218600299
C            0.46492390731049       -0.47769016775821       -0.08824095357597
N           -0.53115165423236        0.39733769829252        0.00009452889763
C           -0.18416756692554        1.67770581816156        0.07740813602698
C           -1.26749887757080        2.65524129844599        0.18097364691399
C           -1.00282204781230        4.00004748137030        0.42732276669784
C           -2.05386743394783        4.89127004138386        0.53527169059473
C           -3.36131462088888        4.45663220829085        0.39727905582966
C           -3.64231644608664        3.11378788091447        0.14627270394218
C           -5.02490254719094        2.63432375789807       -0.00434818692343
C           -5.40531908880437        1.40242206895281        0.52480040698347
C           -6.69973830390181        0.94120081285981        0.37598167833851
C           -7.63564475591567        1.70111524047092       -0.30575829987380
C           -7.26876966790702        2.92666209086908       -0.83595770267976
C           -5.97507790673336        3.39103636890681       -0.68582466549431
C           -2.58200708628881        2.22316496590312        0.03999708658012
N            1.07361437819584        2.10720180281623        0.07106482698687
C            2.00759927608624        1.16392819615555       -0.02270036315047
C            3.40830745874994        1.58609541024993       -0.03911705792047
C            3.73284447774377        2.94061652666793       -0.08067175157555
C            5.05955230828747        3.32540035941916       -0.09767425159242
C            6.06418575015080        2.37352951074714       -0.06887423661421
C            5.75601517378290        1.01412026495573       -0.02674634037204
C            6.82290214543917        0.00149632672088        0.00170515781035
C            6.71165157380121       -1.16456418852639       -0.75206679740896
C            7.71520466676963       -2.11499942874791       -0.72934010758017
C            8.84266688656773       -1.91930322218449        0.05072845746185
C            8.96155352782058       -0.76549947290497        0.80712495612009
C            7.96168604023444        0.18900998721629        0.78127920793664
C            4.42024055243903        0.63197560547577       -0.01444433305305
N            1.74999915978712       -0.13927385921467       -0.10509705997201
C           -1.23088235657989       -2.25822647577540       -0.02980377244452
C           -4.03918636070256       -3.13988784363022       -0.49406072604462
C           -5.37190995485951       -3.47039675369765       -0.33596108848142
H           -6.76925678645568       -4.87367368884167        0.48117896609539
H           -5.01361040959813       -6.32349299175596        1.43085570303787
H           -2.64492855528341       -5.73249740394017        1.16236025422659
H           -0.93393772196531       -5.58937937903969       -0.46891757283275
H            1.42468071451439       -4.95427605871269       -0.71043961149196
H            2.09689576029956       -2.57186059606314       -0.53404047197473
H            0.02050252465720        4.32235576537711        0.53670820499122
H           -1.85614395364866        5.93475891813580        0.73350036178813
H           -4.17399681310993        5.16043200553565        0.50435288392057
H           -4.68583616876222        0.81224799508196        1.07327946881016
H           -6.97949526187730       -0.01437609605001        0.79574924411161
H           -8.64681852867925        1.34020575380372       -0.42344599712471
H           -7.99379369704960        3.52204395109016       -1.37188145468727
H           -5.69134755662904        4.33893032752546       -1.11973115409731
H           -2.75956009140699        1.18119286689376       -0.17443829019706
H            2.93714681285681        3.66803778197740       -0.10355002490158
H            5.31633368681610        4.37407775967306       -0.13649391150364
H            7.09876252787412        2.68342514838460       -0.09934444697017
H            5.84127313123329       -1.31399980967047       -1.37415977488290
H            7.61910646824877       -3.01204559366161       -1.32383223913626
H            9.62546093373681       -2.66319099236090        0.06950759948044
H            9.83679140231748       -0.60981635733260        1.42117573532711
H            8.05246340162034        1.07913258281907        1.38697305155600
H            4.14623396853113       -0.41020801107073        0.03722126300889
H           -1.95429628188638       -1.48669007207162        0.18135224534966
H           -3.76906358924263       -2.25427456044704       -1.05040587324123
H           -6.13566890401540       -2.83198797727951       -0.75632972052766
