  141
  -220.557210538600       0.524710656928867      !
 C         -6.1889990407       -5.0260121257       -3.7742392550
 C         -5.0370945381       -4.3825760902       -3.0049792701
 C         -3.7982294198       -4.3560013566       -3.9260337442
 C         -5.3225386057       -2.9513474248       -2.5968051979
 C         -6.3106997502       -2.1783520321       -3.1811985205
 C         -6.4285691167       -0.8266063848       -2.9005493823
 C         -5.5188581324       -0.2226091215       -2.0534352020
 C         -4.5420899154       -0.9793016337       -1.4371750863
 C         -4.4660223732       -2.3538790626       -1.6581261589
 N         -3.5536648117       -3.1553545528       -0.9771150612
 C         -2.5573251982       -2.5947745131       -0.1461795006
 C         -1.2158520435       -2.8574211988       -0.4319431388
 C         -0.2270908814       -2.3455064935        0.3749601568
 C         -0.5017784455       -1.5536481126        1.4991258678
 C         -1.8652379042       -1.3380437452        1.7903197113
 C         -2.8744583228       -1.8469670839        0.9715547520
 O         -2.3287727320       -0.6666123349        2.8771013409
 C         -1.4972960118       -0.2211828107        3.8491397474
 C         -2.0797260120        0.3068202127        4.9945715775
 C         -1.2658757326        0.7556767407        6.0190097421
 C          0.1123015405        0.7013192873        5.9152599044
 C          0.6879960406        0.1809736366        4.7605912201
 C         -0.1038780904       -0.3024593445        3.7076719270
 B          0.5304081065       -0.9292240666        2.4708007597
 C          2.0745588776       -0.8274557411        2.4489168322
 C          2.9169863003       -1.1834918219        1.3878367745
 C          4.2912505730       -1.0260324698        1.4120178537
 C          5.1377757410       -1.3222643856        0.1730160128
 C          5.1039077464       -0.1571011053       -0.8009455301
 C          6.1417369802        0.0157132438       -1.7186401166
 C          6.1143706745        1.0593751864       -2.6142359171
 C          5.0239752860        1.9313079204       -2.6513368943
 C          3.9254877336        1.7338328332       -1.7959489771
 C          4.0253749729        0.6995205543       -0.8592839662
 B          2.7193832670        2.6785205765       -1.9637701457
 C          1.2925458215        2.6646373401       -1.3738941168
 C          0.6906970335        1.6195380152       -0.6592743403
 C         -0.5693430831        1.7236682301       -0.1201240880
 C         -1.2856593465        2.9132211021       -0.2601511820
 N         -2.5497286015        3.0551862750        0.3621723525
 C         -3.6871743820        3.1836680468       -0.4191489871
 C         -3.5937759799        3.0612167120       -1.8093071053
 C         -4.7038052737        3.2147425988       -2.6132987193
 C         -5.9394262766        3.4698559471       -2.0431788113
 C         -6.0430011502        3.5442621163       -0.6660034900
 C         -4.9391825165        3.4067493410        0.1647045089
 C         -5.1272835744        3.4734812384        1.6677372793
 C         -5.8068702889        4.8076716303        2.0243757431
 C         -6.0120257225        2.2900371781        2.0989733679
 C         -3.8075491454        3.3851543890        2.4072776877
 C         -3.7933511419        3.5137609857        3.7893323799
 C         -2.6193233221        3.4885592756        4.5171610113
 C         -1.4171759820        3.3277516171        3.8519734877
 C         -1.4048227090        3.1788989332        2.4824416397
 C         -2.5920507048        3.1925227513        1.7430343325
 C         -0.7477687457        3.9529245721       -0.9953608954
 C          0.5155154928        3.8223654190       -1.5748691598
 O          0.9042827908        4.8928315747       -2.3184675142
 C          2.0679541866        4.8989729842       -3.0158410137
 C          2.3178021397        5.9798146826       -3.8527883901
 C          3.4979345263        6.0118165636       -4.5767466125
 C          4.4339101371        4.9975808700       -4.4779637345
 C          4.1852903683        3.9245162460       -3.6284359330
 C          2.9954062434        3.8549932379       -2.8874232590
 O          5.1221374980        2.9491812887       -3.5509688714
 C          6.5392940128       -1.7308381702        0.5736708909
 C          7.5751496079       -0.9478779404        1.0412803783
 C          8.7744861118       -1.5590880109        1.3835489378
 C          8.9351250753       -2.9299444303        1.2559690768
 C          7.9146156788       -3.7168804759        0.7469679631
 C          6.7205502047       -3.1098303845        0.3952159385
 C          5.5471095033       -3.6439188688       -0.2774699874
 C          5.2844867032       -4.9145243429       -0.7616745011
 C          4.1318540309       -5.1180879743       -1.5031513835
 C          3.2797104940       -4.0626977203       -1.7870674292
 C          3.5367157326       -2.7877005330       -1.2986156179
 C          4.6506191538       -2.5909081982       -0.5096222865
 C          4.8688213913       -0.5326359424        2.5820377820
 C          4.0851966238       -0.1759773922        3.6547901763
 C          2.6961812330       -0.2903245324        3.5913409607
 O          2.0394669341        0.1477180069        4.6986260801
 C         -3.8338615754       -4.5101175779       -0.8276977021
 C         -3.3510296839       -5.2151758296        0.2746586253
 C         -3.6932860122       -6.5396166804        0.4621105788
 C         -4.5392812778       -7.1687285792       -0.4326734362
 C         -5.0116289478       -6.4742054883       -1.5342911832
 C         -4.6560978139       -5.1548875595       -1.7606423897
 H         -7.0899297307       -5.0687600386       -3.1646705320
 H         -5.9178092554       -6.0343310984       -4.0802463133
 H         -6.3969716736       -4.4617938540       -4.6799624135
 H         -3.5241087549       -5.3694275255       -4.2120401026
 H         -4.0139761525       -3.7814949991       -4.8252840422
 H         -2.9547459147       -3.8979764045       -3.4188162354
 H         -6.9999325682       -2.6207449589       -3.8809904659
 H         -7.2090939063       -0.2451686112       -3.3665650921
 H         -5.5676764639        0.8371718395       -1.8625243431
 H         -3.8349574085       -0.4917412209       -0.7863044397
 H         -0.9690840633       -3.4752880830       -1.2823046983
 H          0.7980646700       -2.5856870571        0.1449817675
 H         -3.9025643615       -1.6760501946        1.2488929623
 H         -3.1536147373        0.3559900159        5.0684986382
 H         -1.7141479590        1.1558818758        6.9153971079
 H          0.7492775350        1.0552252667        6.7103012049
 H          2.4562750365       -1.5891192668        0.5056291174
 H          6.9834056201       -0.6609130081       -1.7120771399
 H          6.9292568977        1.2208469665       -3.3038978867
 H          3.2219228552        0.5904448422       -0.1515793053
 H          1.2257591626        0.6922779290       -0.5398514240
 H         -1.0055140426        0.9012966519        0.4245449888
 H         -2.6411934846        2.8383021720       -2.2628530132
 H         -4.6038643903        3.1229725689       -3.6848781724
 H         -6.8157847815        3.5909514507       -2.6614696106
 H         -7.0159741434        3.7110046197       -0.2323929043
 H         -5.9662724432        4.8900361013        3.0957372431
 H         -5.1783391863        5.6364035311        1.7068608153
 H         -6.7697653259        4.8983322090        1.5337971960
 H         -5.5235481794        1.3517184716        1.8381613762
 H         -6.9763354527        2.3248317570        1.5967152204
 H         -6.1797987091        2.3053794292        3.1704712175
 H         -4.7250206569        3.6439030902        4.3189286199
 H         -2.6422893728        3.6007692411        5.5898914202
 H         -0.4863690444        3.3164678964        4.3981131390
 H         -0.4593997311        3.0617822694        1.9775169483
 H         -1.2994962006        4.8690168312       -1.1396261025
 H          1.5904406033        6.7717258227       -3.9317940362
 H          3.6919815341        6.8476059593       -5.2315823728
 H          5.3530808679        5.0275790432       -5.0408347413
 H          7.4709753532        0.1256792527        1.1136374728
 H          9.5935995563       -0.9568216004        1.7481506021
 H          9.8740092086       -3.3849390459        1.5351377896
 H          8.0536805423       -4.7794143951        0.6145489468
 H          5.9707709045       -5.7277308864       -0.5788423902
 H          3.9088739450       -6.1023706170       -1.8884919131
 H          2.4092581593       -4.2304610676       -2.4047855306
 H          2.8901272723       -1.9652799696       -1.5701984410
 H          5.9368557181       -0.4239712309        2.6636562331
 H          4.5291663948        0.2148787189        4.5574231791
 H         -2.7154128595       -4.7196723933        0.9915278959
 H         -3.3097536955       -7.0735022552        1.3189295979
 H         -4.8253945730       -8.1987762612       -0.2827422863
 H         -5.6597429348       -6.9863728163       -2.2262664171
  141
  -220.557046672400       0.441176319701601      !
 C         -6.2965251960       -4.6209222192       -3.6750673663
 C         -5.1038991628       -4.0095155047       -2.9409336918
 C         -3.9537673343       -3.8254194793       -3.9554118128
 C         -5.4055535924       -2.6407643513       -2.3627957786
 C         -6.4369675172       -1.8400913258       -2.8242163754
 C         -6.5749830048       -0.5280252971       -2.4038696809
 C         -5.6474537016        0.0117882995       -1.5332124039
 C         -4.6288122128       -0.7758614985       -1.0356254916
 C         -4.5224363151       -2.1153683093       -1.4065312967
 N         -3.5486854335       -2.9436582839       -0.8587620973
 C         -2.5369241564       -2.4276143458       -0.0158978999
 C         -1.2054961291       -2.5391269069       -0.4197950290
 C         -0.1992258696       -2.0737484611        0.3928747759
 C         -0.4411547044       -1.4779767561        1.6397167448
 C         -1.7929114899       -1.3988230424        2.0344317139
 C         -2.8226290851       -1.8651687118        1.2130665868
 O         -2.2251581020       -0.9120912288        3.2257155694
 C         -1.3679492053       -0.4461128856        4.1626779745
 C         -1.9126069777       -0.0332442239        5.3731717464
 C         -1.0754911318        0.4603247324        6.3575504396
 C          0.2892786322        0.5557986255        6.1532362498
 C          0.8276718154        0.1324210439        4.9422796862
 C          0.0138585335       -0.3907423802        3.9248829252
 B          0.6145298290       -0.9110825078        2.6230042797
 C          2.1545984328       -0.7632630017        2.5517974580
 C          2.9794174529       -1.1415769976        1.4845764057
 C          4.3435903820       -0.9199258206        1.4475486065
 C          5.1647181091       -1.2743728908        0.2041838736
 C          5.1372322798       -0.1357398839       -0.7965041418
 C          6.1978484543        0.0561874574       -1.6834953191
 C          6.1597926444        1.0768464877       -2.6062046013
 C          5.0424376426        1.9111191795       -2.6915393383
 C          3.9249334455        1.6919707674       -1.8665924584
 C          4.0273622604        0.6763974974       -0.9111863092
 B          2.7001577534        2.6028785865       -2.0786088907
 C          1.2592128182        2.5594969949       -1.5281099759
 C          0.6540408762        1.4971458059       -0.8426354985
 C         -0.6189247144        1.5781408597       -0.3303174780
 C         -1.3429702243        2.7655773464       -0.4582749496
 N         -2.6157502128        2.8873901578        0.1469287649
 C         -3.7326269373        3.1096739843       -0.6451150870
 C         -3.6203636085        3.0541561297       -2.0382674977
 C         -4.7044008635        3.3077138095       -2.8513886421
 C         -5.9329139099        3.6084116148       -2.2904001598
 C         -6.0612963762        3.6074858506       -0.9135298837
 C         -4.9858036599        3.3527908391       -0.0722662533
 C         -5.2129830957        3.2967107925        1.4246140882
 C         -5.8351877959        4.6260694246        1.8878155023
 C         -6.1689872572        2.1280549452        1.7259499095
 C         -3.9196738724        3.0753279074        2.1830297363
 C         -3.9443111976        3.0635710057        3.5712525846
 C         -2.7951696372        2.9273689658        4.3256556781
 C         -1.5780978862        2.8063754314        3.6804386308
 C         -1.5281666572        2.7939124236        2.3032355182
 C         -2.6919981413        2.9064145187        1.5347173408
 C         -0.8003384402        3.8213020373       -1.1683494566
 C          0.4713176276        3.7095099834       -1.7324861976
 O          0.8593036060        4.7892235790       -2.4641983736
 C          2.0329468448        4.8107900953       -3.1449635849
 C          2.2797375152        5.8918542063       -3.9827760704
 C          3.4711492319        5.9394278893       -4.6871203283
 C          4.4235128414        4.9427646921       -4.5655808638
 C          4.1790875570        3.8711327708       -3.7130958432
 C          2.9757031950        3.7833531222       -2.9967713577
 O          5.1344321141        2.9163446415       -3.6063122623
 C          6.5514375326       -1.7217412032        0.6146994185
 C          7.6236533876       -0.9685154964        1.0477535758
 C          8.7940550685       -1.6187659555        1.4175527596
 C          8.8910200558       -2.9997877949        1.3528918772
 C          7.8346402101       -3.7601251963        0.8777067212
 C          6.6702407807       -3.1147116426        0.4971040029
 C          5.4745261120       -3.6256075218       -0.1539912439
 C          5.1511839692       -4.9025496037       -0.5810987889
 C          3.9878999301       -5.0843728221       -1.3119160611
 C          3.1855584835       -4.0042760129       -1.6438494773
 C          3.5035403474       -2.7225720984       -1.2125585954
 C          4.6269650422       -2.5446927789       -0.4328590539
 C          4.9343862459       -0.3124783430        2.5555205388
 C          4.1742925100        0.0479447644        3.6436409652
 C          2.7942985037       -0.1628634182        3.6516980847
 O          2.1664786678        0.2466583382        4.7862818138
 C         -3.7361302630       -4.3206472920       -0.8755790703
 C         -3.1241550564       -5.1266984388        0.0845198093
 C         -3.3571925538       -6.4871058540        0.1093510878
 C         -4.2227723361       -7.0562559050       -0.8061938287
 C         -4.8252976578       -6.2597431570       -1.7660064899
 C         -4.5825050693       -4.8980092893       -1.8316368062
 H         -7.1347292963       -4.7687164920       -2.9982233633
 H         -6.0197850790       -5.5757569818       -4.1128131034
 H         -6.6072584736       -3.9756640866       -4.4916208755
 H         -3.6685548754       -4.7876660249       -4.3755053064
 H         -4.2690287137       -3.1662127446       -4.7613221435
 H         -3.0865820251       -3.3867150904       -3.4703007512
 H         -7.1456934251       -2.2277038898       -3.5368883280
 H         -7.3858335190        0.0773464058       -2.7799260789
 H         -5.7170051343        1.0440041250       -1.2374207951
 H         -3.9097329932       -0.3405810878       -0.3607558710
 H         -0.9796494198       -3.0027440926       -1.3683419796
 H          0.8161494961       -2.1876742867        0.0555112430
 H         -3.8391275701       -1.8010598477        1.5690278476
 H         -2.9780490389       -0.0989568789        5.5230553409
 H         -1.4939117304        0.7798631377        7.2998577733
 H          0.9440843077        0.9486091502        6.9146634279
 H          2.5161836810       -1.6372035439        0.6522129004
 H          7.0616325837       -0.5899429467       -1.6371956253
 H          6.9900809026        1.2543313364       -3.2722695241
 H          3.2066346449        0.5514233543       -0.2249881769
 H          1.1990547324        0.5751119518       -0.7261517696
 H         -1.0583973767        0.7397719429        0.1871406058
 H         -2.6736674592        2.8016416201       -2.4870514866
 H         -4.5885841082        3.2649857478       -3.9240034914
 H         -6.7873892632        3.8177647924       -2.9155551503
 H         -7.0335189554        3.8006987437       -0.4873318501
 H         -6.0179190306        4.6189116134        2.9579046670
 H         -5.1601050051        5.4487574387        1.6605894985
 H         -6.7805687095        4.8087551024        1.3861305366
 H         -6.3795230350        2.0683008248        2.7899516822
 H         -5.7171250150        1.1905445916        1.4101449871
 H         -7.1088471650        2.2512294500        1.1951655920
 H         -4.8875157680        3.1708673721        4.0842383552
 H         -2.8468383515        2.9281335949        5.4032327015
 H         -0.6646220536        2.7197002197        4.2488074753
 H         -0.5693439149        2.7079579673        1.8184713059
 H         -1.3564219099        4.7356201625       -1.3068359222
 H          1.5415111322        6.6718521651       -4.0783402240
 H          3.6620087732        6.7743921665       -5.3440380556
 H          5.3521137178        4.9866013485       -5.1116437384
 H          7.5734797390        0.1111441647        1.0699844381
 H          9.6408500587       -1.0389897460        1.7543870509
 H          9.8078094638       -3.4848528560        1.6539325510
 H          7.9237258278       -4.8328314318        0.7931262094
 H          5.7976799112       -5.7387762404       -0.3611465913
 H          3.7166943907       -6.0735252494       -1.6504422050
 H          2.3057075165       -4.1594754650       -2.2514376778
 H          2.8969375214       -1.8812159218       -1.5166697352
 H          5.9947871748       -0.1285579252        2.5810342663
 H          4.6291038887        0.5065682039        4.5082616336
 H         -2.4699141541       -4.6832717899        0.8184420761
 H         -2.8713677226       -7.0982647383        0.8554548165
 H         -4.4228234708       -8.1166769502       -0.7838839813
 H         -5.4863195909       -6.7265976087       -2.4772424891
  141
  -220.554627679900       3.411302336953199E-002 !
 C         -6.4294502956       -4.3770424467       -3.9654059766
 C         -5.1757457357       -3.8823841588       -3.2452746090
 C         -3.9975247446       -3.9207475369       -4.2432730877
 C         -5.2979535792       -2.4500278759       -2.7640675275
 C         -6.2087349665       -1.5508761442       -3.2935407581
 C         -6.1708198020       -0.2055703151       -2.9661368189
 C         -5.1752325853        0.2659818026       -2.1311707501
 C         -4.2751785758       -0.6167538890       -1.5684872716
 C         -4.3597191969       -1.9837847696       -1.8301026174
 N         -3.5210666100       -2.8957182877       -1.1957469682
 C         -2.5283803142       -2.4432245370       -0.2939259688
 C         -1.1858097086       -2.7195553166       -0.5547935387
 C         -0.2152233894       -2.2831678873        0.3172448582
 C         -0.5081612706       -1.5482724275        1.4744635633
 C         -1.8752811431       -1.3219518051        1.7370377229
 C         -2.8675803188       -1.7678872332        0.8625645348
 O         -2.3587069686       -0.6809185657        2.8326334606
 C         -1.5464611563       -0.2423814819        3.8224563566
 C         -2.1500178896        0.3081159359        4.9459965684
 C         -1.3570160524        0.7516177908        5.9890272235
 C          0.0213500458        0.6623676746        5.9276990380
 C          0.6184363448        0.1200276337        4.7943564294
 C         -0.1513059284       -0.3487628965        3.7189898153
 B          0.5070006892       -0.9665138904        2.4897215624
 C          2.0520844361       -0.8795102657        2.5052742267
 C          2.9199517269       -1.2105055211        1.4562435022
 C          4.2956487603       -1.0770013408        1.5275517225
 C          5.1698888072       -1.3735258144        0.3135173573
 C          4.9296232946       -0.4135848099       -0.8395989243
 C          5.8202024026       -0.4482762695       -1.9180449042
 C          5.7121956519        0.4546453858       -2.9490050555
 C          4.6800512203        1.3972950176       -2.9522963875
 C          3.7069380078        1.3855351163       -1.9387363354
 C          3.8933555854        0.4938122663       -0.8755013979
 B          2.5294919407        2.3662904347       -2.0897646193
 C          1.1608601963        2.4702905507       -1.3886279661
 C          0.5695793159        1.5012586871       -0.5666657487
 C         -0.6607745487        1.6870316949        0.0144752262
 C         -1.3512963345        2.8871781927       -0.1727154627
 N         -2.5876913936        3.0562175354        0.4894772996
 C         -3.7546851847        3.3529148452       -0.2065409383
 C         -3.7392789289        3.6149732777       -1.5769695351
 C         -4.8917234207        3.9944768977       -2.2372931207
 C         -6.0787833263        4.1194410672       -1.5404495565
 C         -6.1159804772        3.7798341062       -0.1982249780
 C         -4.9811643609        3.3642605437        0.4786326568
 C         -5.0315979155        2.7792237845        1.8762637521
 C         -6.2918928066        3.1811381324        2.6423374901
 C         -5.0306731960        1.2441418141        1.7137454296
 C         -3.7588201895        3.1504900349        2.6070972131
 C         -3.7067219692        3.3815583240        3.9720601982
 C         -2.5057162276        3.5970264942        4.6256244107
 C         -1.3251516106        3.5794101120        3.9073691678
 C         -1.3541563159        3.3868360376        2.5414955147
 C         -2.5634002745        3.1770416387        1.8774114041
 C         -0.7982746087        3.8705347289       -0.9740878335
 C          0.4204275442        3.6457791318       -1.6177261936
 O          0.8075657060        4.6466224839       -2.4569819843
 C          1.8834870721        4.5170041305       -3.2743386404
 C          2.1023260373        5.5031067372       -4.2290103799
 C          3.1859011511        5.3838575004       -5.0833347471
 C          4.0567895406        4.3108540748       -5.0045952395
 C          3.8452080317        3.3367089990       -4.0347494558
 C          2.7555926003        3.4257017765       -3.1560035497
 O          4.7111781891        2.2953430372       -3.9764781185
 C          6.6391375079       -1.3751846607        0.6835791056
 C          7.4482138143       -0.3004805942        0.9903297231
 C          8.7781911023       -0.5379289730        1.3100511466
 C          9.2859309576       -1.8284897206        1.3216531441
 C          8.4845290749       -2.9088932793        0.9899049571
 C          7.1590182119       -2.6754679881        0.6616865243
 C          6.1246184926       -3.5738629630        0.1750803096
 C          6.1654506552       -4.9325342992       -0.0877285644
 C          5.0582829865       -5.5314378434       -0.6664891290
 C          3.9462707126       -4.7773308594       -1.0043774017
 C          3.8999292748       -3.4150321710       -0.7369730778
 C          4.9773827242       -2.8200119623       -0.1167464312
 C          4.8471644804       -0.6495038743        2.7358758887
 C          4.0372765737       -0.3090088669        3.7940709789
 C          2.6487898583       -0.3851982478        3.6805187541
 O          1.9686288905        0.0492706387        4.7754940849
 C         -3.8972340605       -4.2326470849       -1.1273498029
 C         -3.4225946020       -5.0464371759       -0.0984311295
 C         -3.8368218632       -6.3590820714        0.0064170561
 C         -4.7489975200       -6.8695642188       -0.8982943836
 C         -5.2175255536       -6.0661664284       -1.9246277249
 C         -4.7937517471       -4.7556229477       -2.0690134771
 H         -7.2882229642       -4.3715470603       -3.2983686803
 H         -6.2756326728       -5.3851133903       -4.3394290863
 H         -6.6419797457       -3.7486130222       -4.8254130772
 H         -3.8407046376       -4.9375629486       -4.5971175137
 H         -4.2085982772       -3.2777545432       -5.0950228975
 H         -3.0850056107       -3.5738959234       -3.7666784658
 H         -6.9610624164       -1.8884470106       -3.9867615547
 H         -6.8948294606        0.4740024286       -3.3896033926
 H         -5.1011840063        1.3178543732       -1.9090305383
 H         -3.4966844956       -0.2353413013       -0.9286130686
 H         -0.9242031978       -3.2820330280       -1.4385030213
 H          0.8119054623       -2.5316070219        0.1094821944
 H         -3.9017617636       -1.5863950976        1.1096042729
 H         -3.2242740823        0.3799897779        4.9902474464
 H         -1.8229547967        1.1720809668        6.8667579756
 H          0.6423105465        1.0064231815        6.7392563588
 H          2.4823855324       -1.5657628410        0.5408612867
 H          6.6203786755       -1.1735942995       -1.9252623126
 H          6.4257294476        0.4633814286       -3.7584235400
 H          3.2048363501        0.5610361557       -0.0500550271
 H          1.0848127504        0.5682449337       -0.4071968670
 H         -1.0974944443        0.9194603679        0.6325591386
 H         -2.8277353417        3.5042349368       -2.1397161556
 H         -4.8553763796        4.1941346714       -3.2979994722
 H         -6.9787232583        4.4417397751       -2.0416071339
 H         -7.0624742793        3.8293210305        0.3133575373
 H         -6.3093117733        2.7019085010        3.6169396658
 H         -6.3400335579        4.2594820412        2.7754315049
 H         -7.1783690604        2.8470308172        2.1110329583
 H         -5.8996976883        0.9259216279        1.1414115026
 H         -5.0484620741        0.7647839678        2.6897915120
 H         -4.1364344687        0.9229421451        1.1897278627
 H         -4.6135084560        3.3876556733        4.5540264977
 H         -2.4948033009        3.7689872451        5.6908392943
 H         -0.3793573566        3.7301727251        4.4056482173
 H         -0.4317024864        3.4102221449        1.9829699098
 H         -1.2958356361        4.8164419761       -1.1197839572
 H          1.4246184085        6.3388197780       -4.2986886421
 H          3.3537655248        6.1451735527       -5.8298984257
 H          4.8976699186        4.2229818051       -5.6736079722
 H          7.0563252468        0.7065953050        0.9741427840
 H          9.4253367998        0.2926795547        1.5503838111
 H         10.3224681943       -1.9902726838        1.5784306039
 H          8.8889340594       -3.9099286167        0.9773709283
 H          7.0467719267       -5.5121400116        0.1427538215
 H          5.0698076290       -6.5906482297       -0.8773516088
 H          3.1057180974       -5.2526361537       -1.4887607613
 H          3.0411720851       -2.8395362347       -1.0475791924
 H          5.9153730936       -0.5717279918        2.8542746632
 H          4.4593929465        0.0408929226        4.7235611301
 H         -2.7320359893       -4.6459257407        0.6267281089
 H         -3.4549632672       -6.9768248022        0.8056355760
 H         -5.0899788633       -7.8901793143       -0.8149008357
 H         -5.9195797654       -6.4877388143       -2.6246599515
