60
 energy: -95.780280949084 gnorm: 0.000060704055 xtb: 6.7.1 (edcfbbe)
C            1.27751699872938        2.51198079799668        0.74759131057882
C            0.22057813767121        1.62467915831151        0.81556384173456
C            0.44058542286798        0.25749817669704        0.64956699005679
C           -0.69654124017361       -0.66511655769874        0.71956778252015
C           -0.58288587375905       -2.01773232290113        1.04870009392488
N           -1.62643131868770       -2.83077281894456        0.99268583493120
C           -2.80033744038473       -2.32399827418267        0.67674777648458
C           -2.95566576595167       -0.94532386743497        0.45785636229609
N           -4.17923007513541       -0.36420411968951        0.18793653845241
C           -5.42068492434295       -0.77996552997479        0.65384541247443
C           -5.74483924365651       -1.73353626008934        1.60745557262612
C           -7.08150814080892       -1.92173459609465        1.91066565198746
C           -8.08050019722329       -1.17429033554527        1.29508239395452
C           -7.76245843595314       -0.19240181263798        0.37754904355208
C           -6.42739043734098        0.01471763496121        0.06132144870858
C           -5.76031294963785        0.96380011849793       -0.78836370719342
C           -6.21887102871483        1.97857559238318       -1.61711431575034
C           -5.29334110237932        2.73076970319448       -2.31322613449751
C           -3.93041710002445        2.47491809790655       -2.19276415293851
C           -3.45191948495797        1.46878519742370       -1.37330730271993
C           -4.37684120594344        0.71692659092484       -0.66690884874274
N           -1.89509323891842       -0.14788696506679        0.45349669441675
C            1.73093696170892       -0.20261542310343        0.40883421877843
C            2.78923594979123        0.69447476766137        0.32243546122606
N            4.08018971687746        0.22583131465125        0.04813422575865
C            4.42615439203672       -0.62311566975134       -0.98601269349995
C            3.63362745506959       -1.16911692290721       -1.98546302389981
C            4.24580584603470       -1.97495790085037       -2.92633224335976
C            5.61477696458301       -2.22945847792760       -2.88657098246006
C            6.41253267703361       -1.66871048875990       -1.90948862746793
C            5.82015562987156       -0.85516950076316       -0.95260988023629
C            6.33218702824707       -0.10891377817951        0.16257962560493
C            7.60079426101208        0.04682226459082        0.70530373294294
C            7.74841515605081        0.84163303271905        1.82427871447125
C            6.64868914251010        1.46401234650475        2.41070694543284
C            5.37674518794542        1.32404254816827        1.88916916303355
C            5.22606853328315        0.54691289845651        0.74974812342741
C            2.55966035691441        2.05731275771588        0.49642373300456
H            1.10171749425218        3.56939016113129        0.87783092788347
H           -0.78431983480229        1.97070423109197        0.99861303587439
H            0.35017135608082       -2.46738671371298        1.35399144432675
H           -3.61406133990693       -3.02447343344849        0.56389706722585
H           -4.98745638301621       -2.30156531647088        2.12459883274549
H           -7.35269201487039       -2.66241786654151        2.64809791236574
H           -9.11286933673338       -1.35474864512325        1.55435926721202
H           -8.53124986346329        0.41138327017585       -0.08000501865703
H           -7.27687062310669        2.17007893001867       -1.71271935437173
H           -5.62743508202812        3.52753878473994       -2.96104647759024
H           -3.22828766989105        3.07687616171473       -2.75043690276520
H           -2.39515126829904        1.27920197602944       -1.28028115667530
H            1.92298876717838       -1.25611476087978        0.27514485811907
H            2.57499419061120       -0.96333398823178       -2.03828636008276
H            3.64924651997328       -2.41409202953957       -3.71233660409895
H            6.05477016852766       -2.86709954495305       -3.63877664930239
H            7.47624494349061       -1.85162186152471       -1.88805255594190
H            8.45007447484207       -0.44892335358119        0.25987938715786
H            8.72670953174113        0.97854579826231        2.26042437135685
H            6.79264191968215        2.06695265934316        3.29518585321560
H            4.52862922199794        1.79584229701013        2.36230819121712
H            3.38281821350325        2.75059386822283        0.41252315116913
