  60
        -95.78054675
 C          1.2986148571        1.7117792005       -2.0575303424
 C          0.2466658399        0.9902366679       -1.5268410227
 C          0.4865344870       -0.0113720771       -0.5860060642
 C         -0.6412213300       -0.7800377965       -0.0519450535
 C         -0.5118585157       -2.0534577752        0.5080293465
 N         -1.5445815003       -2.6759416294        1.0545209410
 C         -2.7248554465       -2.0938450415        1.0033483059
 C         -2.8960313679       -0.8667309310        0.3419871028
 N         -4.1300989270       -0.2610420749        0.2063559086
 C         -5.3583087993       -0.8978450305        0.0765522570
 C         -5.6540056404       -2.2392053510       -0.1159281723
 C         -6.9827782462       -2.5987266033       -0.2535699302
 C         -8.0013376904       -1.6517473028       -0.2154638109
 C         -7.7113750210       -0.3095253868       -0.0689008144
 C         -6.3845525058        0.0730667871        0.0675922009
 C         -5.7433272540        1.3551010246        0.1817879214
 C         -6.2274509296        2.6549733325        0.2344517099
 C         -5.3223384506        3.6919009448        0.3464222739
 C         -3.9545226588        3.4415896689        0.4108821947
 C         -3.4505372064        2.1546463386        0.3603425300
 C         -4.3550215937        1.1120562757        0.2402920122
 N         -1.8457033722       -0.2175025654       -0.1437949469
 C          1.7909431541       -0.2588519323       -0.1711736114
 C          2.8484955475        0.4603743169       -0.7158006379
 N          4.1589081637        0.1862747182       -0.3061872485
 C          4.7319674530       -1.0690431644       -0.2306645096
 C          4.2047412219       -2.3049240307       -0.5768344413
 C          5.0109340796       -3.4166698536       -0.4239036706
 C          6.3158056600       -3.3092221898        0.0517276420
 C          6.8552948587       -2.0794680303        0.3713694023
 C          6.0637720661       -0.9476504387        0.2270210044
 C          6.2961943975        0.4534638220        0.4406973081
 C          7.3880890338        1.1809946916        0.8952170040
 C          7.2680298495        2.5513220698        1.0106311923
 C          6.0733940787        3.1943793353        0.6947812513
 C          4.9735327787        2.4921198076        0.2403315844
 C          5.0963725778        1.1175815680        0.0976283931
 C          2.5994519399        1.4452974287       -1.6687752547
 H          1.1077063332        2.4805193827       -2.7914435199
 H         -0.7694655056        1.1820630778       -1.8330000452
 H          0.4258518389       -2.5882322611        0.5326321661
 H         -3.5320344337       -2.5912144435        1.5197909172
 H         -4.8805756140       -2.9882064288       -0.1839092170
 H         -7.2320667158       -3.6390154895       -0.4006553603
 H         -9.0268137652       -1.9725829312       -0.3206184288
 H         -8.4955334747        0.4321187803       -0.0696876145
 H         -7.2891068377        2.8450777399        0.1903598104
 H         -5.6765970472        4.7112528787        0.3857724927
 H         -3.2692632313        4.2713803764        0.5010255024
 H         -2.3902515445        1.9669311590        0.4061109484
 H          1.9944181144       -0.9874870685        0.5983656662
 H          3.2024349425       -2.3977051621       -0.9678312310
 H          4.6213321314       -4.3902822150       -0.6824575225
 H          6.9128309407       -4.2023822565        0.1602657583
 H          7.8725170598       -1.9934104119        0.7224084666
 H          8.3079280553        0.6798320069        1.1562750437
 H          8.1056780137        3.1362910776        1.3601864149
 H          6.0036100803        4.2658986259        0.8110956207
 H          4.0465640215        2.9986345014        0.0173770911
 H          3.4258150712        1.9849327317       -2.1059382418
