60
 energy: -95.709125945200 gnorm: 0.000085867209 xtb: 6.7.1 (edcfbbe)
C            1.30251071243198        1.80103078649650       -1.87557050199078
C            0.26145053305339        1.09903813935228       -1.31382013698888
C            0.50455498900841        0.05469818153607       -0.39881636548044
C           -0.61079735734471       -0.63753814428832        0.17790510068098
C           -0.50426632731801       -1.81732701027934        0.92537868166766
N           -1.54574549780694       -2.42026265649062        1.42739821414576
C           -2.77899802286777       -1.91036627197244        1.23492104054210
C           -2.93267312861470       -0.79248375353529        0.42286388738307
N           -4.18163630477108       -0.24454851574234        0.20105843371590
C           -5.37928441040918       -0.92418315829288        0.04792344787001
C           -5.61989995645585       -2.28386801045480       -0.08352815476804
C           -6.92953726933743       -2.69509383526643       -0.25624940906605
C           -7.97782130568501       -1.78137416253335       -0.30854729043825
C           -7.74040106324274       -0.42293198491277       -0.21336144432673
C           -6.43487608248040        0.01237112502795       -0.04123397356898
C           -5.83774377951319        1.31838142448567        0.05429284384882
C           -6.35010033220134        2.60705763735131        0.02244625551377
C           -5.47274792048939        3.66979029679912        0.13409012380483
C           -4.10413242725252        3.45909581374394        0.27720516235401
C           -3.57154622640683        2.18319313881228        0.31656565424369
C           -4.44750563639010        1.11676044961749        0.19527829645572
N           -1.87469582013335       -0.18093170202279       -0.08946057414202
C            1.83630468671550       -0.23077136126931       -0.06536857048639
C            2.87581263176634        0.47784690290107       -0.64121052309755
N            4.20187782092281        0.16760820969134       -0.29789571203135
C            4.76788337637186       -1.08894451001921       -0.32334753929537
C            4.21543018671670       -2.29884707333827       -0.72107437504532
C            5.01810849298926       -3.42226629737184       -0.66857041986771
C            6.34179160545589       -3.35104410717164       -0.23992348695358
C            6.90406681118054       -2.14622923250408        0.13533083623166
C            6.11779683930943       -1.00344837533861        0.09168311237029
C            6.36583310886187        0.38116789565433        0.38445542851740
C            7.47574454107452        1.07867880622815        0.84024382801220
C            7.36419186881675        2.44082245010572        1.04182951933876
C            6.16165438582215        3.10437028108374        0.80835197510691
C            5.04292190831614        2.43215364213614        0.35493175573059
C            5.15543919275379        1.06729224874282        0.12831067087599
C            2.61825756792357        1.49812983800476       -1.55809084192851
H            1.09524959314267        2.59221084531110       -2.58136580607240
H           -0.76137388769267        1.33185025407623       -1.56573598299264
H            0.45425367220039       -2.29181107587014        1.06621330947491
H           -3.60026670327462       -2.34133484944483        1.77862838756457
H           -4.81501189281786       -3.00214521509158       -0.07238393829446
H           -7.14073518807692       -3.74901571364830       -0.35804777530531
H           -8.98700919079003       -2.14148734668065       -0.44037565282173
H           -8.54970042491451        0.28815685327427       -0.27866293461633
H           -7.41093062700886        2.77223179215770       -0.08894398590680
H           -5.85190317629352        4.68058246194621        0.11232639256300
H           -3.44406478007528        4.30909150686610        0.36416728064307
H           -2.51157540142946        2.01970038921878        0.43270911704805
H            2.07101647708356       -0.98785231140361        0.66710106837476
H            3.19611229210094       -2.35864164211786       -1.07203476230800
H            4.61140789892365       -4.37636623480941       -0.96995619523372
H            6.93589359707299       -4.25230162119614       -0.21064203188076
H            7.93431931678892       -2.08963389692538        0.45299006045656
H            8.40382475486479        0.56292253608247        1.03572330993781
H            8.21669615688815        3.00231671612287        1.39407184515869
H            6.10148265986456        4.16740938922711        0.98960235101907
H            4.10974801782212        2.94983072009370        0.19240135588020
H            3.43818707522684        2.02597906290538       -2.01944371732372
