60
 energy: -95.709747196050 gnorm: 0.000117006500 xtb: 6.7.1 (edcfbbe)
C            2.81722180960293        3.59975598846273       -1.27615689352552
C            1.44782104700182        3.69894866330422       -1.16619433524835
C            0.68698019803311        2.61559668917144       -0.69538835926971
C           -0.74284559836978        2.65023640832596       -0.57563930192392
C           -1.50874848981519        3.81869081822384       -0.65471263687469
N           -2.80747554599326        3.81319325203029       -0.52412855797319
C           -3.45715742403127        2.65161129120986       -0.30754300352973
C           -2.72413830524883        1.48296762546289       -0.14569390197990
N           -3.36197432139071        0.27554722040874        0.07044718320341
C           -3.02291935859449       -0.91016015588210       -0.56255833191569
C           -1.98107553619031       -1.16997931801138       -1.43755314526329
C           -1.87123891963008       -2.45321863915439       -1.94054256537605
C           -2.77598238581821       -3.45061122579372       -1.58833746146004
C           -3.82101491729811       -3.19189649496524       -0.72071261411416
C           -3.95197536620799       -1.91117151028882       -0.20434804703088
C           -4.89042430747532       -1.29635752018751        0.69732598057783
C           -5.99513493556501       -1.77237128490475        1.38756549006815
C           -6.67780479777444       -0.90669541708946        2.22163195501238
C           -6.25664594333675        0.40959750637118        2.38524622114184
C           -5.15866169397961        0.90668103876162        1.70611479863890
C           -4.48962593440926        0.05191957609005        0.84268596536635
N           -1.40426084347718        1.48783635050867       -0.27465849894101
C            1.36543349494300        1.43650940416890       -0.34027037852983
C            2.74062767546191        1.34874978121388       -0.45298425770899
N            3.40027648702714        0.16503764661298       -0.08026987445460
C            3.08907118307666       -1.10777419930358       -0.50771093017361
C            2.11361958206308       -1.52781572047588       -1.40180336774880
C            2.03590311611072       -2.87837652044031       -1.68172321804117
C            2.90477319148764       -3.79604777231810       -1.09604021832799
C            3.88994780467500       -3.38240511683866       -0.22061820716492
C            3.99000174971158       -2.03039611141098        0.07526842968353
C            4.88094918192627       -1.26327179681668        0.90067593046897
C            5.94903611119256       -1.59645659665143        1.72163234023846
C            6.59544974990534       -0.58712974807608        2.40871157613172
C            6.17893611386745        0.73752976539366        2.29585513240372
C            5.11852432984984        1.09400888767442        1.48506895707426
C            4.48010334467893        0.08749592692699        0.77301843314721
C            3.47988034557928        2.43225879710737       -0.92782882662295
H            3.38501579836753        4.43973267647318       -1.64908452777048
H            0.96197133076436        4.61613765742680       -1.46057397218737
H           -1.03186367277679        4.77796606871903       -0.77858058915984
H           -4.53195485820828        2.65361440158871       -0.33722783098729
H           -1.28345805798671       -0.39445232301045       -1.71200996125593
H           -1.07154647845808       -2.68340256718346       -2.62754018025359
H           -2.65912565622771       -4.44030374838263       -2.00397370773956
H           -4.52210879062250       -3.96645857018816       -0.44947521155892
H           -6.30737840359188       -2.79970953289871        1.27820693354173
H           -7.54178455615809       -1.25665712153739        2.76621499831482
H           -6.79488808587686        1.05724717869327        3.06091192110662
H           -4.82783845377689        1.92182482023609        1.86157030814777
H            0.79706541624763        0.60457079224651        0.04620220698658
H            1.44589647209108       -0.82188498268313       -1.87106180946872
H            1.28836409649245       -3.23383325417542       -2.37485062601849
H            2.80855078862386       -4.84371492756422       -1.33950598283717
H            4.57292981991884       -4.09151478260987        0.22237732277908
H            6.26252962410874       -2.62472987046418        1.82144361610528
H            7.43048986401118       -0.82480870217810        3.05084279306739
H            6.69437621892461        1.50251699254347        2.85766831319590
H            4.79120723064365        2.12034168501238        1.41666836640198
H            4.54987266527257        2.34942765717734       -1.03766485272139
