  68
       -113.57034001
 C          3.5111957993        2.1587151000       -1.8818620525
 C          3.1248000037        0.8995562290       -2.3129327920
 C          1.8272084842        0.4677039860       -2.1194201181
 C          0.8983434437        1.3030621276       -1.5029876097
 C         -0.4633954923        0.8318043880       -1.2549135122
 N         -0.6452788774       -0.4886527597       -1.2568275868
 C         -1.8332827830       -0.9863731861       -0.9553709213
 C         -1.9010207884       -2.4388350003       -0.7153269425
 C         -2.8055134694       -3.2697913649       -1.3578002096
 C         -2.7886785426       -4.6326656580       -1.1136105082
 C         -1.8727453546       -5.1699649743       -0.2247864531
 C         -0.9851323810       -4.3459816827        0.4475303084
 C         -1.0010668122       -2.9802669780        0.2140053782
 N         -0.1532938874       -2.1033924149        0.9218244652
 C         -0.6295604374       -1.0014776086        1.6071625020
 C         -1.9074257158       -0.7582404524        2.0885688706
 C         -2.1374470247        0.4512019516        2.7163493581
 C         -1.1207053148        1.3905072753        2.8776196264
 C          0.1615445848        1.1389140255        2.4315396965
 C          0.4128605642       -0.0675871798        1.7925151450
 C          1.5691656455       -0.6393670276        1.1696137900
 C          2.8744299881       -0.2316305947        0.9416396437
 O          3.4587422365        0.9312668193        1.3291673558
 C          4.7291855531        0.8955711823        0.8408687255
 C          5.6897349854        1.8804715148        0.9762979106
 C          6.9222538768        1.6503027201        0.3902819447
 C          7.1857231975        0.4739550206       -0.3061339240
 C          6.2262167860       -0.5108781625       -0.4375239402
 C          4.9817376883       -0.3020947781        0.1416383354
 C          3.7543929894       -1.0475772574        0.2085654189
 C          3.3384516404       -2.2773118211       -0.3051172657
 C          2.0436612462       -2.7000035062       -0.0983519952
 C          1.1780657478       -1.8854874084        0.6287122827
 C         -2.9052715063       -0.1216242812       -0.7516258640
 S         -4.5592288443       -0.4776563437       -0.3507887770
 C         -4.8972914728        1.2329995882       -0.1633733988
 C         -6.1177332082        1.7863165953        0.1876891694
 C         -6.2049818785        3.1604629968        0.3033598016
 C         -5.0970197566        3.9730289223        0.0727603062
 C         -3.8826040269        3.4235150163       -0.2802106101
 C         -3.7749927305        2.0416992521       -0.4014121337
 C         -2.6186264713        1.2604130925       -0.7451104222
 N         -1.4028714164        1.7278800474       -0.9758872104
 C          1.2879744095        2.5715350080       -1.0800888019
 C          2.5908989654        2.9917062456       -1.2651945986
 H          4.5318272497        2.4854875069       -2.0189564315
 H          3.8439143437        0.2501156914       -2.7902504703
 H          1.5166574430       -0.5167124411       -2.4332087936
 H         -3.5064984675       -2.8490438178       -2.0635622537
 H         -3.4899545384       -5.2766521998       -1.6221649452
 H         -1.8571162216       -6.2341363493       -0.0430564958
 H         -0.2847152523       -4.7525980923        1.1617651311
 H         -2.6978804599       -1.4847850601        1.9635238309
 H         -3.1287329656        0.6763458051        3.0827927610
 H         -1.3457557263        2.3283112463        3.3634551713
 H          0.9550790864        1.8588550268        2.5590020100
 H          5.4777455234        2.7899128088        1.5153781237
 H          7.6955692985        2.3991312082        0.4746544530
 H          8.1597571135        0.3329126064       -0.7509344469
 H          6.4337639064       -1.4222840775       -0.9775038262
 H          4.0290533304       -2.8832906718       -0.8711070287
 H          1.6936941187       -3.6364323440       -0.5051580483
 H         -6.9735482794        1.1541284373        0.3669312147
 H         -7.1477857704        3.6095657368        0.5780193357
 H         -5.1948621971        5.0435325068        0.1721965956
 H         -3.0115332600        4.0318794986       -0.4646394892
 H          0.5602374459        3.2035136989       -0.5950858580
 H          2.8955233570        3.9702426518       -0.9232048546
