  106
  -173.935284722800       0.262750986952513      !
 O          2.0864268780        3.8251420673       -0.5417568382
 C          1.0180456082        3.3546920633       -0.2420679250
 C          0.6231082446        1.9353992117       -0.0890529394
 C         -0.7612677434        1.8841377613        0.1039752613
 C         -1.4395204941        0.6768465667        0.1893289701
 N         -2.8152401888        0.6193827577        0.3713267046
 C         -3.4747901959       -0.1468683878        1.3168781821
 C         -2.9630469162       -0.8052518699        2.4228321827
 C         -3.8474137981       -1.5100727583        3.2174108311
 C         -5.2109592196       -1.5326517280        2.9394104495
 C         -5.7318294389       -0.8234866530        1.8740484504
 C         -4.8611408170       -0.1170967737        1.0570629268
 C         -5.0434767778        0.7213478818       -0.0961954465
 C         -6.1583471964        1.1041819749       -0.8278929211
 C         -5.9786468727        1.9104870997       -1.9348528675
 C         -4.7059513882        2.3189628149       -2.3234686764
 C         -3.5810326899        1.9476508288       -1.6109701521
 C         -3.7604203997        1.1632927329       -0.4833105370
 C         -0.6718775717       -0.5110757539        0.0698622891
 N         -1.3122781188       -1.7496180065        0.1384484181
 C         -1.0537092857       -2.7510387893        1.0611543938
 C         -0.1105638387       -2.7962674473        2.0747214050
 C         -0.0780354245       -3.9210517725        2.8773626707
 C         -0.9787998120       -4.9666450983        2.6986261556
 C         -1.9534181833       -4.9025337699        1.7218148426
 C         -1.9973965485       -3.7872308163        0.8979157613
 C         -2.8714919968       -3.3856739145       -0.1690493505
 C         -3.9755391947       -3.9728965217       -0.7695571234
 C         -4.5936520176       -3.3086842947       -1.8111533648
 C         -4.0988727163       -2.0950642756       -2.2790944686
 C         -2.9953112654       -1.4971034578       -1.7011279185
 C         -2.4127567064       -2.1286874313       -0.6139574276
 C          0.7214498195       -0.4580718914       -0.0951499083
 N          1.4420625025       -1.6463570419       -0.2321388997
 C          1.2455770622       -2.5884296659       -1.2290600363
 C          0.3172094639       -2.6018296220       -2.2572438391
 C          0.3573008142       -3.6571214925       -3.1489210566
 C          1.3120097376       -4.6638633178       -3.0388391816
 C          2.2673826851       -4.6293514570       -2.0415951428
 C          2.2408488395       -3.5833839455       -1.1303020670
 C          3.0799512651       -3.2180934641       -0.0229629563
 C          4.2048045885       -3.7928120799        0.5501716533
 C          4.7792154247       -3.1748359877        1.6437963709
 C          4.2246589133       -2.0188560649        2.1851879895
 C          3.0993953483       -1.4344758926        1.6359208628
 C          2.5545897773       -2.0196681655        0.5038857002
 C          1.3975718879        0.7868704738       -0.1625472586
 N          2.7813571890        0.8550787070       -0.2617234331
 C          3.5842328952        0.1679211019       -1.1548946853
 C          3.2317148602       -0.5044047158       -2.3134699404
 C          4.2400020218       -1.1202795825       -3.0306487655
 C          5.5693671003       -1.0421724155       -2.6258334028
 C          5.9308759610       -0.3167820428       -1.5068623897
 C          4.9343633397        0.3019435422       -0.7665572011
 C          4.9426887778        1.1242493598        0.4124099375
 C          5.9503842134        1.5759178679        1.2526037615
 C          5.6047333452        2.3384818923        2.3512984227
 C          4.2728985331        2.6373455937        2.6244773291
 C          3.2523845939        2.1951572424        1.8032508250
 C          3.5979729078        1.4533315352        0.6855901549
 C         -1.2597853411        3.2735113221        0.2318454162
 O         -2.3558023126        3.6717485029        0.5362885873
 N         -0.1519054911        4.0842231763       -0.0242248069
 C         -0.2114406442        5.4970810969       -0.0814217295
 C         -1.2455174441        6.1147044538       -0.7727945391
 C         -1.2953842893        7.4952614311       -0.8335551329
 C         -0.3169317111        8.2574116304       -0.2176551130
 C          0.7132028163        7.6359198043        0.4679712664
 C          0.7690081266        6.2561645684        0.5435545455
 H         -1.9134647597       -0.7687929836        2.6684492574
 H         -3.4709017838       -2.0499504298        4.0734200074
 H         -5.8703346875       -2.0978512070        3.5806528795
 H         -6.7935572669       -0.8142018482        1.6811022067
 H         -7.1434321866        0.7721206208       -0.5379382133
 H         -6.8331405137        2.2242326409       -2.5153883374
 H         -4.5951008305        2.9370485458       -3.2024250499
 H         -2.5985795976        2.2590828530       -1.9336081512
 H          0.5734394379       -1.9832720058        2.2554222402
 H          0.6586673442       -3.9836694074        3.6645425821
 H         -0.9224834228       -5.8288847615        3.3458158752
 H         -2.6719963839       -5.6988382275        1.6027791079
 H         -4.3399224656       -4.9295818609       -0.4281631057
 H         -5.4621569132       -3.7419185228       -2.2836428739
 H         -4.5845531002       -1.6088824532       -3.1119266957
 H         -2.6118543046       -0.5684835401       -2.0948558115
 H         -0.4081622576       -1.8141124072       -2.3809769012
 H         -0.3644809491       -3.6954757766       -3.9513599770
 H          1.3112366076       -5.4721398039       -3.7544685558
 H          3.0253687992       -5.3945093017       -1.9741454750
 H          4.6184437588       -4.7047499958        0.1478347649
 H          5.6615438364       -3.5997186651        2.0979407996
 H          4.6800260298       -1.5681177799        3.0543549802
 H          2.6723674605       -0.5503116956        2.0840518075
 H          2.2093943024       -0.5481377881       -2.6545569827
 H          3.9891443508       -1.6699418738       -3.9256211686
 H          6.3285570749       -1.5408899247       -3.2092110342
 H          6.9657896930       -0.2289670414       -1.2138183873
 H          6.9817646770        1.3300269971        1.0513982030
 H          6.3735660429        2.7046806172        3.0149195787
 H          4.0312916137        3.2248048400        3.4982009146
 H          2.2225111283        2.4218349239        2.0364736807
 H         -2.0062081561        5.5172232653       -1.2493258559
 H         -2.1000134903        7.9757182471       -1.3694019457
 H         -0.3575586478        9.3347115383       -0.2716815225
 H          1.4769921267        8.2265329678        0.9507513518
 H          1.5719300052        5.7675168743        1.0717793887
  106
  -173.935180634200       0.235346935430051      !
 O          2.0584521613        3.8400009021       -0.5725776338
 C          1.0032692474        3.3656265119       -0.2345503359
 C          0.6158552391        1.9437672758       -0.0891468798
 C         -0.7642410558        1.8888151088        0.1318101040
 C         -1.4449127721        0.6821166235        0.1998814780
 N         -2.8231540659        0.6288944416        0.3609338082
 C         -3.5079826645       -0.1519491885        1.2756491288
 C         -3.0266160421       -0.8272354284        2.3850996805
 C         -3.9333230326       -1.5387568657        3.1478908114
 C         -5.2894239722       -1.5534277430        2.8347368207
 C         -5.7804530788       -0.8307453521        1.7643079736
 C         -4.8869645120       -0.1165859867        0.9792990441
 C         -5.0379409594        0.7387206366       -0.1661747177
 C         -6.1318148639        1.1310023281       -0.9242088707
 C         -5.9218634286        1.9553069136       -2.0124368965
 C         -4.6396594228        2.3747695067       -2.3555766706
 C         -3.5351512401        1.9938877325       -1.6166170465
 C         -3.7450543311        1.1878467087       -0.5097578474
 C         -0.6793055000       -0.5063268494        0.0776520447
 N         -1.3243681457       -1.7430454961        0.1324621303
 C         -1.0769987431       -2.7618882847        1.0374852486
 C         -0.1633832040       -2.8165462012        2.0775387179
 C         -0.1350776653       -3.9610812926        2.8518023098
 C         -1.0108722359       -5.0172412315        2.6185150374
 C         -1.9563722489       -4.9453766328        1.6140635049
 C         -1.9964244010       -3.8096770047        0.8182927211
 C         -2.8416201421       -3.3974396632       -0.2677854123
 C         -3.9084754922       -3.9913600401       -0.9263002464
 C         -4.4986446222       -3.3140124957       -1.9756883726
 C         -4.0125992696       -2.0787081262       -2.3937579462
 C         -2.9451508168       -1.4734405151       -1.7584467821
 C         -2.3919390233       -2.1214943684       -0.6656019184
 C          0.7134785197       -0.4513431367       -0.0855819706
 N          1.4517237009       -1.6334354060       -0.1647653453
 C          1.2862336566       -2.6485857872       -1.0922111783
 C          0.3802505087       -2.7527377153       -2.1351595731
 C          0.4458106542       -3.8767650665       -2.9366833437
 C          1.4045464885       -4.8634419407       -2.7264566747
 C          2.3389950458       -4.7402041945       -1.7166669519
 C          2.2858889089       -3.6246316351       -0.8937719790
 C          3.0934000049       -3.1719997233        0.2048003028
 C          4.2001437080       -3.6964970755        0.8565547474
 C          4.7317489338       -2.9992934891        1.9240930187
 C          4.1515147512       -1.8134679880        2.3647969023
 C          3.0436706285       -1.2779137120        1.7361464094
 C          2.5448012143       -1.9439077723        0.6280102373
 C          1.3863114095        0.7941367693       -0.1824314765
 N          2.7641863396        0.8490834300       -0.3451425792
 C          3.5038760271        0.1427234456       -1.2775702813
 C          3.0719939176       -0.5440455593       -2.4002213746
 C          4.0280408173       -1.1673625721       -3.1797671150
 C          5.3823386267       -1.0839294460       -2.8697312821
 C          5.8201245064       -0.3475385834       -1.7856015203
 C          4.8771143905        0.2791176912       -0.9839772259
 C          4.9658930027        1.1214465072        0.1775151587
 C          6.0294328506        1.5856648028        0.9380474645
 C          5.7608787732        2.3721218398        2.0412980708
 C          4.4513832223        2.6822582694        2.3972456163
 C          3.3764309018        2.2278511056        1.6562432719
 C          3.6434298828        1.4611703573        0.5338479899
 C         -1.2586302201        3.2739507356        0.3062979780
 O         -2.3466838083        3.6595822413        0.6528471324
 N         -0.1569549533        4.0922209136        0.0444041768
 C         -0.2096470791        5.5061432236        0.0605661600
 C         -1.2999009784        6.1634772285       -0.4952068527
 C         -1.3476144033        7.5452865084       -0.4715075124
 C         -0.3114857003        8.2715746864        0.0907799763
 C          0.7757036491        7.6113977883        0.6379355501
 C          0.8296591864        6.2296321633        0.6316026868
 H         -1.9834350672       -0.7979700693        2.6573562161
 H         -3.5807960143       -2.0904926486        4.0065703497
 H         -5.9668166709       -2.1237968339        3.4521620780
 H         -6.8367616301       -0.8160384762        1.5438161596
 H         -7.1241380405        0.7921688642       -0.6688850680
 H         -6.7595973482        2.2756890030       -2.6133938003
 H         -4.5045728631        3.0087447231       -3.2196756209
 H         -2.5447424739        2.3144865152       -1.9042373733
 H          0.5024213682       -1.9974086463        2.2969066360
 H          0.5794351731       -4.0324705083        3.6584313027
 H         -0.9569667370       -5.8957493206        3.2435190624
 H         -2.6551269604       -5.7517697610        1.4519178931
 H         -4.2652281285       -4.9640362255       -0.6242104798
 H         -5.3373859444       -3.7534722985       -2.4938891916
 H         -4.4752371709       -1.5820594986       -3.2335372397
 H         -2.5638534782       -0.5289551017       -2.1147215416
 H         -0.3498672013       -1.9854853680       -2.3366211097
 H         -0.2597065663       -3.9864679547       -3.7469250261
 H          1.4239002781       -5.7273097877       -3.3735399297
 H          3.1001013770       -5.4913004756       -1.5711594537
 H          4.6314439313       -4.6323549088        0.5361413344
 H          5.5988167217       -3.3850331350        2.4385372527
 H          4.5713156630       -1.3012641844        3.2176633683
 H          2.5898317470       -0.3729686823        2.1098917039
 H          2.0287866079       -0.5889871223       -2.6701583651
 H          3.7158717589       -1.7263781711       -4.0492774209
 H          6.0994636596       -1.5873675396       -3.5003586993
 H          6.8729782314       -0.2555176633       -1.5673617847
 H          7.0440379811        1.3311087978        0.6725673012
 H          6.5739315064        2.7482446550        2.6438419742
 H          4.2712734773        3.2889264567        3.2726584322
 H          2.3653864336        2.4643554587        1.9533967817
 H         -2.1063289805        5.5960113352       -0.9306828989
 H         -2.1972760607        8.0551551497       -0.8997255699
 H         -0.3510146596        9.3501742215        0.1021848607
 H          1.5859005553        8.1728843064        1.0779576555
 H          1.6757870253        5.7138036805        1.0557711256
  106
  -173.935161979500       0.230746669318642      !
 O          2.0894565585        3.8496747305       -0.4779873471
 C          1.0152674096        3.3745724620       -0.2082779899
 C          0.6209492385        1.9524091663       -0.0821951373
 C         -0.7633498981        1.8987875423        0.1145664899
 C         -1.4449713467        0.6922561039        0.1780627036
 N         -2.8230999338        0.6317253334        0.3401438418
 C         -3.4923863597       -0.1564198448        1.2609671373
 C         -2.9975589092       -0.8068721165        2.3792710364
 C         -3.8876652726       -1.5353706331        3.1456346353
 C         -5.2413983883       -1.5897191279        2.8270458062
 C         -5.7477510547       -0.8887353836        1.7492331576
 C         -4.8708280892       -0.1576613025        0.9611752124
 C         -5.0391512556        0.6841316037       -0.1918251298
 C         -6.1412977179        1.0447236717       -0.9534043345
 C         -5.9496940809        1.8666686784       -2.0467595971
 C         -4.6774454830        2.3139969174       -2.3913331961
 C         -3.5646223044        1.9637216912       -1.6496537807
 C         -3.7566334439        1.1607624708       -0.5376161212
 C         -0.6772971868       -0.4967148451        0.0660441025
 N         -1.3236452125       -1.7330679762        0.1159872177
 C         -1.0999127488       -2.7444994186        1.0357956618
 C         -0.1921986499       -2.8037476322        2.0806618552
 C         -0.1930245466       -3.9362413013        2.8728780028
 C         -1.0906654172       -4.9763959392        2.6517175800
 C         -2.0272586419       -4.9008920818        1.6392729180
 C         -2.0380599840       -3.7775268600        0.8254533597
 C         -2.8683057336       -3.3654415973       -0.2721158886
 C         -3.9416373336       -3.9485177805       -0.9299159666
 C         -4.5112662091       -3.2751896117       -1.9931904241
 C         -3.9996511704       -2.0549378248       -2.4247388973
 C         -2.9264011777       -1.4602123625       -1.7892390355
 C         -2.3929790559       -2.1034748474       -0.6837973786
 C          0.7166441197       -0.4428789590       -0.0820415005
 N          1.4535517664       -1.6259576103       -0.1602300284
 C          1.2995638579       -2.6313736093       -1.1005198358
 C          0.3989151210       -2.7303217959       -2.1485162770
 C          0.4757698247       -3.8448864862       -2.9622412406
 C          1.4403012640       -4.8272775025       -2.7588486045
 C          2.3690506824       -4.7091355180       -1.7432374941
 C          2.3043767321       -3.6033664190       -0.9080271845
 C          3.1028186661       -3.1589343137        0.2004909840
 C          4.2095870449       -3.6838931058        0.8517802764
 C          4.7301465162       -2.9966072802        1.9311416176
 C          4.1384813475       -1.8211835611        2.3841303979
 C          3.0305824262       -1.2853366214        1.7557842343
 C          2.5437819209       -1.9397151802        0.6354340893
 C          1.3921435025        0.8024879289       -0.1656369156
 N          2.7719794797        0.8523725955       -0.3167692377
 C          3.5114208320        0.1501632524       -1.2527827747
 C          3.0807267773       -0.5166484377       -2.3879006001
 C          4.0359726340       -1.1393312968       -3.1690378948
 C          5.3886449578       -1.0748988284       -2.8476255601
 C          5.8259006574       -0.3595451513       -1.7492640556
 C          4.8836583980        0.2659317554       -0.9458288379
 C          4.9722104241        1.0883820526        0.2297665517
 C          6.0342035064        1.5237933842        1.0092573520
 C          5.7648926803        2.2933354415        2.1241537151
 C          4.4563322501        2.6167549658        2.4715723257
 C          3.3828859081        2.1913287427        1.7115829671
 C          3.6510463830        1.4396063110        0.5795572959
 C         -1.2619163028        3.2850586781        0.2675261940
 O         -2.3681086190        3.6745127894        0.5450938768
 N         -0.1519569900        4.1012582992        0.0366007624
 C         -0.2058235384        5.5162133446        0.0463206633
 C         -0.8996205476        6.1742519266        1.0537620389
 C         -0.9548181690        7.5560796040        1.0536070657
 C         -0.3121429614        8.2817099009        0.0648505225
 C          0.3838802969        7.6208953867       -0.9331560479
 C          0.4350272193        6.2390167421       -0.9517850030
 H         -1.9563105524       -0.7465327759        2.6544789261
 H         -3.5236329358       -2.0698191259        4.0103994702
 H         -5.9054319055       -2.1740235772        3.4459994614
 H         -6.8031791217       -0.9046169729        1.5246161767
 H         -7.1256374405        0.6852608189       -0.6953561778
 H         -6.7945291781        2.1651817519       -2.6489648563
 H         -4.5565737714        2.9475642431       -3.2576178974
 H         -2.5826275787        2.3077419522       -1.9376526495
 H          0.4904434738       -1.9965158779        2.2912980869
 H          0.5153438680       -4.0102187200        3.6846947506
 H         -1.0609674767       -5.8448091169        3.2923313472
 H         -2.7421251354       -5.6945109859        1.4851502888
 H         -4.3184143674       -4.9101736454       -0.6171566548
 H         -5.3542255412       -3.7063852233       -2.5116438747
 H         -4.4467503609       -1.5618112093       -3.2749096023
 H         -2.5256456689       -0.5269496426       -2.1541750781
 H         -0.3359573142       -1.9663188739       -2.3445913410
 H         -0.2258140246       -3.9506088408       -3.7764244736
 H          1.4681060850       -5.6839789074       -3.4150957454
 H          3.1342822308       -5.4568591382       -1.6021705978
 H          4.6498372582       -4.6121186984        0.5213856548
 H          5.5976173745       -3.3822720571        2.4449884272
 H          4.5493430638       -1.3171355309        3.2460959161
 H          2.5679667725       -0.3885682355        2.1384175758
 H          2.0387790259       -0.5477551441       -2.6652115664
 H          3.7245365729       -1.6832814823       -4.0483188797
 H          6.1052405869       -1.5768212300       -3.4801230709
 H          6.8779278250       -0.2826706896       -1.5213033697
 H          7.0478638543        1.2594971149        0.7496402266
 H          6.5767622695        2.6459781217        2.7423362239
 H          4.2754254036        3.2111166332        3.3550409526
 H          2.3725835850        2.4395365593        2.0006526353
 H         -1.3987631382        5.6069434636        1.8224039862
 H         -1.4976511568        8.0664684953        1.8348268128
 H         -0.3538055654        9.3603118505        0.0719528531
 H          0.8853300578        8.1818584081       -1.7073129958
 H          0.9770677248        5.7222567200       -1.7268928026
  106
  -173.934967027700       0.187733508645794      !
 O          2.0708296279        3.8653596345       -0.4584738084
 C          1.0042251081        3.3775124615       -0.1818782153
 C          0.6161933479        1.9505121184       -0.0925431844
 C         -0.7665570898        1.8888218750        0.1102113352
 C         -1.4475898726        0.6818765295        0.1629551394
 N         -2.8306164911        0.6318060637        0.2842508100
 C         -3.5500266889       -0.1323644533        1.1859882545
 C         -3.1150181489       -0.7718565580        2.3350649462
 C         -4.0497991136       -1.4735712555        3.0726453061
 C         -5.3887952793       -1.5139120847        2.6949041605
 C         -5.8356090524       -0.8270790380        1.5823783142
 C         -4.9135984288       -0.1222524582        0.8226762294
 C         -5.0185492348        0.6982888113       -0.3528716026
 C         -6.0773455315        1.0523149618       -1.1768245220
 C         -5.8227872644        1.8473588176       -2.2772943847
 C         -4.5308748204        2.2777865184       -2.5661533928
 C         -3.4605120589        1.9347054586       -1.7613666652
 C         -3.7160141522        1.1553763576       -0.6452517441
 C         -0.6765522207       -0.5050393111        0.0695949871
 N         -1.3100872281       -1.7450121822        0.1727684947
 C         -1.0603960733       -2.7043620449        1.1404115900
 C         -0.1398957311       -2.6939394932        2.1756391944
 C         -0.1148478785       -3.7823085535        3.0272440259
 C         -0.9995265497       -4.8454496512        2.8724285531
 C         -1.9482144142       -4.8381455315        1.8683725810
 C         -1.9851117146       -3.7602993907        0.9957073911
 C         -2.8339414725       -3.4169771427       -0.1112493009
 C         -3.9056370177       -4.0496108524       -0.7242713557
 C         -4.5000560188       -3.4399530245       -1.8119503474
 C         -4.0158628744       -2.2337084188       -2.3093711282
 C         -2.9448945553       -1.5902543700       -1.7192188084
 C         -2.3842402238       -2.1699291522       -0.5921755418
 C          0.7160101179       -0.4456162592       -0.0962385137
 N          1.4560504053       -1.6267054721       -0.1671038461
 C          1.2646219752       -2.6657561445       -1.0635019076
 C          0.3397182741       -2.7907105604       -2.0872721831
 C          0.3738356905       -3.9415989948       -2.8517727033
 C          1.3225774155       -4.9345178432       -2.6269281362
 C          2.2810593800       -4.7884851165       -1.6430460591
 C          2.2585955071       -3.6456207808       -0.8569553657
 C          3.0938935614       -3.1683122860        0.2099365952
 C          4.2135988479       -3.6824672777        0.8475599676
 C          4.7763912213       -2.9601623943        1.8818641678
 C          4.2116850513       -1.7612672383        2.3066037570
 C          3.0904205638       -1.2366202905        1.6924561378
 C          2.5626366045       -1.9256048272        0.6122589914
 C          1.3864920210        0.8013462308       -0.2020947216
 N          2.7592203791        0.8488382400       -0.4070608392
 C          3.4502312544        0.1547246969       -1.3856439187
 C          2.9608029056       -0.5308649191       -2.4852158224
 C          3.8760911321       -1.1365623523       -3.3253815050
 C          5.2453567508       -1.0371895664       -3.0968055077
 C          5.7377684351       -0.3045081996       -2.0337794591
 C          4.8367348443        0.3034136853       -1.1715890786
 C          4.9845981464        1.1370177230       -0.0098789308
 C          6.0867423896        1.6053803856        0.6906999704
 C          5.8757964862        2.3792343154        1.8150638547
 C          4.5865827170        2.6715013274        2.2509056937
 C          3.4742440255        2.2130848065        1.5702821944
 C          3.6821355625        1.4609649656        0.4257171169
 C         -1.2705627668        3.2681875463        0.2996793867
 O         -2.3820690142        3.6448429839        0.5739738027
 N         -0.1598795225        4.0930376059        0.1118119755
 C         -0.1989507422        5.5020841285        0.2458907400
 C          0.4583906283        6.3086862575       -0.6737596511
 C          0.4321157153        7.6827014574       -0.5164618903
 C         -0.2544692327        8.2536161796        0.5416265015
 C         -0.9148956313        7.4450209719        1.4511945192
 C         -0.8849255142        6.0696873416        1.3125696311
 H         -2.0856278996       -0.7244648610        2.6541752416
 H         -3.7331861975       -1.9980775477        3.9618180254
 H         -6.0888058746       -2.0765991999        3.2938950447
 H         -6.8797961832       -0.8330261586        1.3098629526
 H         -7.0768312400        0.7061440549       -0.9625610248
 H         -6.6326742913        2.1368580719       -2.9299313181
 H         -4.3604066904        2.8904823017       -3.4391390678
 H         -2.4617381900        2.2654314354       -2.0044220704
 H          0.5319991350       -1.8657108281        2.3340750087
 H          0.6028429300       -3.8023244118        3.8339785378
 H         -0.9499249132       -5.6775421472        3.5584301331
 H         -2.6524868752       -5.6493537554        1.7656126688
 H         -4.2622755682       -5.0001215728       -0.3583166792
 H         -5.3414686148       -3.9108894773       -2.2973409555
 H         -4.4831137744       -1.7903258755       -3.1759383051
 H         -2.5683879735       -0.6676487301       -2.1337636145
 H         -0.3825113801       -2.0200222782       -2.3022326010
 H         -0.3494740813       -4.0679317497       -3.6436628014
 H          1.3159090931       -5.8209232146       -3.2430671833
 H          3.0362827265       -5.5436908410       -1.4884586290
 H          4.6318268018       -4.6287107424        0.5405345815
 H          5.6555649159       -3.3360900781        2.3828433127
 H          4.6544720707       -1.2293800276        3.1353956092
 H          2.6493248509       -0.3219870141        2.0569061498
 H          1.9041259478       -0.5876136432       -2.6935642540
 H          3.5193236941       -1.6933279073       -4.1790707885
 H          5.9297238317       -1.5257532589       -3.7738648444
 H          6.8005332366       -0.2011212791       -1.8774621400
 H          7.0863059689        1.3638299648        0.3630745549
 H          6.7193168933        2.7588112687        2.3718545084
 H          4.4520760461        3.2683545779        3.1409099362
 H          2.4808322762        2.4374462809        1.9288471280
 H          0.9939185855        5.8622589338       -1.4954737519
 H          0.9477871431        8.3089253876       -1.2286622272
 H         -0.2747194391        9.3265772595        0.6578645690
 H         -1.4503522719        7.8842454967        2.2793488321
 H         -1.3945783055        5.4379635285        2.0218694436
  106
  -173.934200521800       8.342189965299984E-002 !
 O          2.1175362503        3.8024005374       -0.5295273507
 C          1.0385682386        3.3435952509       -0.2506564438
 C          0.6337212442        1.9285219681       -0.0864518071
 C         -0.7533833509        1.8847136237        0.0816165124
 C         -1.4331409043        0.6787509151        0.1824113542
 N         -2.8080300954        0.6227271153        0.3718444412
 C         -3.4626493929       -0.1179197174        1.3404389458
 C         -2.9434075104       -0.7608702179        2.4520202747
 C         -3.8257658908       -1.4349080954        3.2750189277
 C         -5.1936369846       -1.4437180041        3.0178761774
 C         -5.7201216026       -0.7534473180        1.9429239275
 C         -4.8519966851       -0.0777696428        1.0976658207
 C         -5.0401900179        0.7370157839       -0.0715566844
 C         -6.1592542017        1.1143184011       -0.7998308026
 C         -5.9838383873        1.8939371164       -1.9264624340
 C         -4.7117327034        2.2817142013       -2.3378301486
 C         -3.5825936444        1.9152928536       -1.6294900778
 C         -3.7575221400        1.1579878797       -0.4826760697
 C         -0.6667411595       -0.5086175774        0.0659203904
 N         -1.2946499397       -1.7508229735        0.1706461662
 C         -0.9736583609       -2.7233297836        1.1050337268
 C         -0.0105905891       -2.7036735736        2.1003496449
 C          0.0894426215       -3.8080975760        2.9249675684
 C         -0.7658681931       -4.8969305378        2.7845258962
 C         -1.7633837876       -4.8961197033        1.8288709242
 C         -1.8753007941       -3.8008206111        0.9843251661
 C         -2.7920553873       -3.4534520767       -0.0656880184
 C         -3.8864653804       -4.0983456676       -0.6228000441
 C         -4.5665264627       -3.4778549634       -1.6524047513
 C         -4.1436801640       -2.2482488027       -2.1479987853
 C         -3.0498512160       -1.5936528399       -1.6146271376
 C         -2.4000333519       -2.1850813499       -0.5432576794
 C          0.7273251257       -0.4617847552       -0.1113326082
 N          1.4179419784       -1.6565853482       -0.3255753344
 C          1.1356570499       -2.5257792766       -1.3680816355
 C          0.1879012466       -2.4128674923       -2.3720174839
 C          0.1334685581       -3.4134150651       -3.3237750969
 C          1.0164531174       -4.4889907600       -3.2947663197
 C          1.9947950176       -4.5783321483       -2.3233744290
 C          2.0627668158       -3.5880111888       -1.3534028103
 C          2.9529692349       -3.3384720234       -0.2538785685
 C          4.0538816310       -4.0172197289        0.2470155847
 C          4.7080595581       -3.4965736684        1.3460398339
 C          4.2583975560       -2.3303607243        1.9579742621
 C          3.1583234013       -1.6431822610        1.4817470673
 C          2.5259070522       -2.1372464385        0.3518237435
 C          1.4093759263        0.7792530035       -0.1441136341
 N          2.7958602345        0.8603508326       -0.1675927319
 C          3.6747213571        0.2220595114       -1.0230447476
 C          3.4193966047       -0.4486833051       -2.2078766328
 C          4.4944244058       -1.0050484610       -2.8751370302
 C          5.7943166069       -0.8741875624       -2.3948605716
 C          6.0577539080       -0.1590790195       -1.2426728222
 C          4.9935196653        0.4004729366       -0.5513673652
 C          4.9005393243        1.1919739370        0.6448410429
 C          5.8362764922        1.6560042371        1.5587948480
 C          5.3945258092        2.3727553132        2.6539659350
 C          4.0379383756        2.6156590502        2.8505582786
 C          3.0881049489        2.1613840561        1.9545998841
 C          3.5303442706        1.4643617675        0.8419278351
 C         -1.2482316976        3.2779820791        0.1772009579
 O         -2.3469198166        3.6850007943        0.4593653272
 N         -0.1338473888        4.0810976364       -0.0785529290
 C         -0.1915942690        5.4899443458       -0.1984576745
 C         -1.2281856617        6.0764493787       -0.9134597805
 C         -1.2719835855        7.4519923278       -1.0464399105
 C         -0.2841911842        8.2404283709       -0.4805905905
 C          0.7475992160        7.6502228229        0.2295368997
 C          0.7967626665        6.2761197643        0.3788739091
 H         -1.8897250456       -0.7359683581        2.6807877271
 H         -3.4442691719       -1.9608886836        4.1375098725
 H         -5.8514062851       -1.9835124484        3.6822458766
 H         -6.7842966380       -0.7341794600        1.7647502413
 H         -7.1443141064        0.7984626904       -0.4922131570
 H         -6.8415853116        2.2030300809       -2.5046650811
 H         -4.6048154632        2.8789906334       -3.2315036212
 H         -2.6004172713        2.2088300437       -1.9694230062
 H          0.6356667939       -1.8542254989        2.2504361725
 H          0.8438952163       -3.8212589245        3.6975011757
 H         -0.6561419545       -5.7429625387        3.4460075077
 H         -2.4481836413       -5.7256728892        1.7426101331
 H         -4.1964058555       -5.0648763875       -0.2561965148
 H         -5.4288988536       -3.9563712128       -2.0912150360
 H         -4.6795398611       -1.7936575941       -2.9678371636
 H         -2.7278694533       -0.6520452611       -2.0308203413
 H         -0.4793474051       -1.5682296764       -2.4309673223
 H         -0.6058495149       -3.3540876462       -4.1086604946
 H          0.9424208345       -5.2522396647       -4.0545564511
 H          2.6990460815       -5.3959836133       -2.3213399050
 H          4.3885609293       -4.9327049070       -0.2162132152
 H          5.5733773604       -4.0035416634        1.7453004080
 H          4.7786545024       -1.9522237096        2.8253587790
 H          2.8209390068       -0.7491270989        1.9830699665
 H          2.4208661138       -0.5376227578       -2.6061007672
 H          4.3204826078       -1.5494195199       -3.7913637520
 H          6.6074744983       -1.3262716218       -2.9423650291
 H          7.0686988949       -0.0340366453       -0.8861800888
 H          6.8867140236        1.4528892383        1.4175220138
 H          6.1058477587        2.7447119057        3.3759730098
 H          3.7197696539        3.1669748244        3.7233160211
 H          2.0380292904        2.3456309962        2.1276859383
 H         -1.9951075128        5.4593753659       -1.3535350899
 H         -2.0779338297        7.9074471783       -1.6017789048
 H         -0.3184971708        9.3133571879       -0.5935087307
 H          1.5187498437        8.2611774791        0.6737059104
 H          1.6008274884        5.8126159483        0.9272047527
