106
 energy: -174.527410309362 gnorm: 0.000166973763 xtb: 6.7.1 (edcfbbe)
O            2.24581373482751        3.74759104729891       -0.43532266009252
C            1.12984313593888        3.29632697513223       -0.19602943922220
C            0.69532723327537        1.93120945075045       -0.08761911293400
C           -0.72258022759614        1.92102400016025        0.09135618027454
C           -1.42216645438989        0.71183955783578        0.16470831023081
N           -2.81088088704164        0.70158348331405        0.31986790111809
C           -3.50652466010522       -0.00313205736251        1.27797077840826
C           -3.03050261772039       -0.65405005548514        2.40676896570770
C           -3.94821721156547       -1.31017854538904        3.20589030874643
C           -5.30702596773899       -1.29424775208871        2.90789095829052
C           -5.79244867143698       -0.59331990918014        1.81622572364283
C           -4.89033890476753        0.06443374803994        0.99699438571817
C           -5.02427473814101        0.87975086161375       -0.18214817349930
C           -6.10926316236155        1.28969471658360       -0.93920838994111
C           -5.87705567199886        2.06858793286754       -2.05991696223575
C           -4.58366899246209        2.42182883418661       -2.43378725855411
C           -3.48564841055400        2.01761221287804       -1.69825243343857
C           -3.71579153553794        1.25963180389084       -0.55890324333203
C           -0.70646266802382       -0.48373162401398        0.07716263207364
N           -1.38075712229171       -1.71335698999763        0.14600406323326
C           -1.20043537285400       -2.69857034604985        1.09711918290424
C           -0.30083204865749       -2.75599932373179        2.15127596231650
C           -0.33634422610320       -3.86738513292842        2.97103485793555
C           -1.25740503044610       -4.89091758070067        2.76585263563077
C           -2.18190346816290       -4.82028249196676        1.74107303585753
C           -2.15980419236759       -3.71733006656778        0.90057435939913
C           -2.96488391415290       -3.31181729203718       -0.21811444954721
C           -4.05127030384465       -3.87426044665505       -0.87113288145747
C           -4.59322932435043       -3.20532096536336       -1.95261702970025
C           -4.04413900044109       -2.00856730668373       -2.40528228864901
C           -2.95766748446218       -1.43380302984789       -1.77545579527375
C           -2.44441516209357       -2.07373759332267       -0.65582624789097
C            0.71353614297213       -0.47352758563966       -0.07880716448272
N            1.40481608817081       -1.69346271862044       -0.15137623992342
C            1.23788067574996       -2.67779164380021       -1.10584218489120
C            0.33930980030863       -2.74362981628190       -2.16039092284703
C            0.38978004382296       -3.85168119263491       -2.98387096219905
C            1.32437173641557       -4.86352324388109       -2.78190408726692
C            2.24772130323407       -4.78398020448307       -1.75673506513517
C            2.21079519512297       -3.68423623379843       -0.91256654633014
C            3.01021512898178       -3.27168655698893        0.20760292124830
C            4.10407119842648       -3.82161615015088        0.85877737604257
C            4.63703047996161       -3.14899649231382        1.94244999691198
C            4.07191731135097       -1.96121919920515        2.39902790668395
C            2.97776040393199       -1.39907038554026        1.77112821506021
C            2.47313315284459       -2.04215622504336        0.64937233028438
C            1.41222205758617        0.73228104126928       -0.16279887976420
N            2.80112335382779        0.74259383675236       -0.31583857096796
C            3.50893565734694        0.05012664796453       -1.27388007605655
C            3.04489026000165       -0.60511668383287       -2.40519097694720
C            3.97377003264104       -1.24627364444959       -3.20355498072082
C            5.33152745102220       -1.21147836050920       -2.90237508441876
C            5.80434168021743       -0.50607243093245       -1.80804495293381
C            4.89101481257922        0.13687241189483       -0.98954484017059
C            5.01056692333133        0.95119025354931        0.19183543208809
C            6.08778902270907        1.37461545883948        0.95251716820766
C            5.84184984214309        2.14738071607871        2.07456347671028
C            4.54269631869940        2.48133619302206        2.44612413245296
C            3.45229920654151        2.06338654999692        1.70692316660696
C            3.69593132876715        1.31150192189188        0.56633447007328
C           -1.17635529646698        3.27974981384365        0.20159272032427
O           -2.29856090856959        3.71491904260000        0.44167245304461
N           -0.02886574188741        4.07484560543885        0.00321223047647
C           -0.03892921624371        5.47417994664418        0.00312207975288
C            1.09460114401588        6.18748456165640        0.39500864348250
C            1.07943887173216        7.56804614787967        0.38641365455459
C           -0.05862858293153        8.25813949257052        0.00188854314506
C           -1.18686128751455        7.55166819714165       -0.38191013981141
C           -1.18250761983595        6.17102134162499       -0.38921847049447
H           -1.98312573008967       -0.63891855083735        2.66433930230892
H           -3.60098846122372       -1.84053018170773        4.07966634874784
H           -5.99439210602488       -1.82167785857619        3.55195713576995
H           -6.85085075154382       -0.55644642577255        1.60875439847212
H           -7.11221778048863        1.00474974666462       -0.66025375058020
H           -6.71001585215034        2.40456430519644       -2.65924878767676
H           -4.43449381530216        3.02289825646249       -3.31829305331174
H           -2.48559018284181        2.28892124272454       -1.99967996197268
H            0.39968399165545       -1.95831518609802        2.34178622340953
H            0.36272856236134       -3.93796943800128        3.79090402350288
H           -1.25416403747444       -5.74431263057681        3.42715616472810
H           -2.91055333647591       -5.60318621773667        1.59609268038672
H           -4.46093775786738       -4.81620646084090       -0.53992906091094
H           -5.44596527815223       -3.62162971356631       -2.46736347088965
H           -4.47215312416555       -1.51884606054538       -3.26700985331458
H           -2.52503603263397       -0.51884199360955       -2.15157331978062
H           -0.37169479577140       -1.95466579427004       -2.34836861800162
H           -0.30817709395200       -3.92886685157793       -3.80409660576716
H            1.33251555758311       -5.71473547374695       -3.44597838496791
H            2.98667012786856       -5.55762393521354       -1.61417348225605
H            4.52640412988891       -4.75682935691682        0.52440563295479
H            5.49530095028910       -3.55549356867006        2.45584375856570
H            4.49326646841721       -1.46869399750187        3.26244101227336
H            2.53284382673227       -0.49129051995326        2.15031574869278
H            1.99799891549684       -0.60444988600050       -2.66519981343298
H            3.63623229832573       -1.77956162530083       -4.07934267923876
H            6.02786928789719       -1.72761734337439       -3.54595577948158
H            6.86160855287598       -0.45464264711056       -1.59787243114083
H            7.09535326057852        1.10461842693863        0.67529748438703
H            6.66850527315280        2.49361155149752        2.67679013035422
H            4.38286201501864        3.07799661230308        3.33175658367295
H            2.44775318383030        2.31964099171744        2.00663342736075
H            1.98076399492690        5.65513557888480        0.69988830880711
H            1.96222096897195        8.10932085957908        0.69365889965234
H           -0.06629288542125        9.33800808162243        0.00146418982171
H           -2.07726909077235        8.08012956815271       -0.68947580247188
H           -2.06107353476104        5.62591748793640       -0.69358519748416
