106
 energy: -174.592400133781 gnorm: 0.000055443470 xtb: 6.7.1 (edcfbbe)
O            2.20006444796833        3.75728717198849       -0.52592759778680
C            1.11462289973219        3.32381799227156       -0.23667283651353
C            0.67787712079610        1.91678650594184       -0.10008831012704
C           -0.70501312292692        1.90698364907760        0.10090454663172
C           -1.42371274941087        0.72371941495257        0.18196662797222
N           -2.80218302580032        0.71663619854548        0.34718992540163
C           -3.50489086922108       -0.04039596663596        1.27024957408205
C           -3.03767413308774       -0.71761308710081        2.38451474780099
C           -3.95849844098261       -1.40659781468358        3.15127437334310
C           -5.31411572134329       -1.39474296824041        2.83756070408732
C           -5.79074387029576       -0.66455509119694        1.76583755246185
C           -4.88291975073225        0.02691856355313        0.97692839321772
C           -5.01610996792190        0.88246771700151       -0.17097729744340
C           -6.10395148088806        1.30330462618935       -0.92237689564972
C           -5.87857734738849        2.12018974988675       -2.01285435004084
C           -4.58773923368602        2.50090619706096       -2.36710430911706
C           -3.48909439650267        2.08950980812748       -1.63585775460180
C           -3.71390445556276        1.29526234426118       -0.52369221442031
C           -0.69342722143644       -0.48924968730730        0.07781009594886
N           -1.37796200720108       -1.70420320260012        0.14110482511963
C           -1.17901281233162       -2.71828222102281        1.06442593196668
C           -0.26251781524218       -2.80366418974055        2.09988641249395
C           -0.29288507683397       -3.93192557230771        2.89773341097846
C           -1.22806970563584       -4.94129826470848        2.69147299099299
C           -2.17362357251830       -4.83805705610810        1.69012966763153
C           -2.15515348214034       -3.71877179527931        0.87065600370970
C           -2.98426815603788       -3.28303733481006       -0.21903504862314
C           -4.08681785846642       -3.83012401797292       -0.85936103346902
C           -4.64606135796489       -3.14193989744535       -1.91836195234197
C           -4.09642670757726       -1.94399951367572       -2.36454540999668
C           -2.99339525286038       -1.38578092712406       -1.74704419266929
C           -2.46946609014900       -2.04125064975767       -0.64402976308635
C            0.70086276347283       -0.47932786387236       -0.07973498368031
N            1.40190725035553       -1.68461695314988       -0.14711122849181
C            1.21674834500121       -2.69728637994273       -1.07481571606527
C            0.30174934137552       -2.79033618024735       -2.11093590499144
C            0.34724269739354       -3.91471287262074       -2.91354996995853
C            1.29565683058525       -4.91247986328950       -2.71126813676934
C            2.23962059402159       -4.80091173148466       -1.70930131856905
C            2.20618724925314       -3.68542623165294       -0.88512966637520
C            3.02928913404531       -3.24315991367313        0.20649623694344
C            4.13948638294368       -3.77767405174453        0.84420423427435
C            4.68955643200704       -3.08627218580120        1.90591266148416
C            4.12353293635673       -1.89799245608305        2.35739997650857
C            3.01272271653027       -1.35241625779272        1.74255929553292
C            2.49772158672252       -2.01025970772964        0.63675738436796
C            1.41382121146298        0.74413229059444       -0.18053040892400
N            2.79285152718954        0.75827567054107       -0.34061077485350
C            3.51192465678998        0.01313576032358       -1.26065942820285
C            3.06115467985717       -0.66960740446685       -2.37833031601651
C            3.99648812649740       -1.34396508149028       -3.14051804955618
C            5.34997990962056       -1.31239008914850       -2.81904284404896
C            5.80961639104771       -0.57649482387640       -1.74381614792410
C            4.88713838793360        0.10050459728129       -0.95938781678768
C            5.00112541610866        0.95606095537255        0.19056896622138
C            6.07820525190881        1.39131466440924        0.94924252850524
C            5.83442198463503        2.20244015923614        2.04007510116772
C            4.53607016819959        2.56351981690512        2.38735978628689
C            3.44795192465397        2.13767363534229        1.64866336790476
C            3.69095128455036        1.34897047820414        0.53638370438158
C           -1.16163334229188        3.30780998293735        0.23603363729001
O           -2.25267261555553        3.72635063386844        0.52623057490998
N           -0.02922435840128        4.08980943213145       -0.00182400051716
C           -0.04004196387355        5.50576173168511       -0.00501777531066
C            1.01693282398386        6.20609495232276        0.56276659167875
C            1.00295412816123        7.58882644428219        0.55019526398215
C           -0.06139724020779        8.27304800753284       -0.01193355394656
C           -1.11502717016116        7.56971623946340       -0.57067824393182
C           -1.10762849656389        6.18690955859332       -0.57634402056370
H           -1.99346709662245       -0.70439108095519        2.65720780202661
H           -3.61580445121055       -1.96009922649939        4.01263403273027
H           -6.00316416274391       -1.94905048516036        3.45691665894950
H           -6.84665593169114       -0.62638140077986        1.54600004318164
H           -7.10308629553469        0.99204701835271       -0.65825999597994
H           -6.71167453602348        2.46432053201021       -2.60737815105878
H           -4.43971005266094        3.12846211291101       -3.23358844759134
H           -2.49116413147023        2.37763322482015       -1.93355974117634
H            0.44807564547022       -2.01693464593058        2.29882623574869
H            0.42203236216286       -4.02474967087089        3.70157383219038
H           -1.22049816024006       -5.80778771328081        3.33548460002254
H           -2.91774426378296       -5.60650997409564        1.54714001747169
H           -4.49311072577684       -4.77582297066247       -0.53506428366299
H           -5.51144701816176       -3.54472473786341       -2.42261807375458
H           -4.53512025543397       -1.43883533883647       -3.21182211735930
H           -2.56060011842448       -0.47071283267496       -2.12321256298833
H           -0.41907410481991       -2.01217060871741       -2.30677223156271
H           -0.36613062700328       -4.01354162683997       -3.71804807229349
H            1.29962094020351       -5.77631841292395       -3.35886438577305
H            2.99374867196399       -5.56010202835378       -1.56929477690101
H            4.55882118588359       -4.71618931054930        0.51566851017277
H            5.56071576756916       -3.47913331339253        2.40805246641144
H            4.55541715838469       -1.39048074272911        3.20676926754947
H            2.56745349697770       -0.44499365497169        2.12268798847761
H            2.01840236733673       -0.67171545242468       -2.65685595278952
H            3.66700662529802       -1.90152362666667       -4.00441226482397
H            6.05069243656899       -1.85575000767275       -3.43500395680243
H            6.86356381177253       -0.52300850314884       -1.51782297920283
H            7.08336097531078        1.09531852241998        0.69048544547634
H            6.65884378556369        2.55734410108785        2.64033435950975
H            4.37366495401216        3.18690698756524        3.25427974849137
H            2.44415542164038        2.41065630746501        1.94091632988457
H            1.84613200700311        5.67308207115591        1.00004763295767
H            1.82681236058481        8.13264359988165        0.98742779777192
H           -0.06975103118777        9.35268755733854       -0.01458300541381
H           -1.94715405223365        8.09856168364220       -1.01061283137915
H           -1.92843064931230        5.63902592507068       -1.01110367208140
