106
 energy: -174.527410999228 gnorm: 0.000095465666 xtb: 6.7.1 (edcfbbe)
O            2.29537671835217        3.71910483429962       -0.44395003741997
C            1.17318137137114        3.28258992523911       -0.20638709173568
C            0.72070520087341        1.92350706694633       -0.09505824189812
C           -0.69780167068768        1.93240327065749        0.08017269547997
C           -1.41358899479342        0.73296464789145        0.15707507805840
N           -2.80305054523133        0.74261003542282        0.30549018947895
C           -3.51408502396466        0.05401828216135        1.26384466369151
C           -3.05401169376297       -0.59591167423348        2.39983687377162
C           -3.98564437841090       -1.23355570328974        3.19777860246138
C           -5.34232391205866       -1.20050881759739        2.89150111695454
C           -5.81131731928769       -0.50023400181311        1.79225167355628
C           -4.89519001272658        0.13928436038905        0.97419331537929
C           -5.01073382453301        0.94906360842268       -0.21071993588986
C           -6.08540837643393        1.37071692396180       -0.97600977779576
C           -5.83567148371160        2.14043185425950       -2.09932142634500
C           -4.53523231455462        2.47271481063764       -2.46781934810788
C           -3.44728413961339        2.05619059358265       -1.72417374494608
C           -3.69483635864070        1.30797345930518       -0.58205633807967
C           -0.71319034459761       -0.47214101409891        0.07903236113768
N           -1.40143449461776       -1.69334124573107        0.15918066657838
C           -1.23010334822448       -2.66988070926367        1.12089345457826
C           -0.33257143808521       -2.72245333513830        2.17703460485417
C           -0.37858568879291       -3.82387118705810        3.00962681009707
C           -1.30771443524178       -4.84208499872756        2.81460365724000
C           -2.22987911415953       -4.77581951484312        1.78740141220301
C           -2.19752513292291       -3.68276766037884        0.93434793732705
C           -2.99812459299815       -3.28247614219045       -0.18944283407773
C           -4.08813384748005       -3.84334651592657       -0.83768571465975
C           -4.62435408508973       -3.18122001066729       -1.92618612963017
C           -4.06665788937840       -1.99259896914457       -2.38967254032051
C           -2.97642594512992       -1.41958800579359       -1.76480073692613
C           -2.46771119871453       -2.05285875688640       -0.63928793675583
C            0.70705607882371       -0.48108500610936       -0.07581689940092
N            1.38152882035288       -1.71064046902804       -0.14402882457155
C            1.19897223765769       -2.69606995953588       -1.09453934476070
C            0.29973597435893       -2.75149512480654       -2.14909624945282
C            0.33274446018145       -3.86318918458027       -2.96853699290216
C            1.25107305751662       -4.88900212160600       -2.76254225202958
C            2.17546741528867       -4.82027550949223       -1.73751306366913
C            2.15595119412453       -3.71690253439116       -0.89748442825375
C            2.96214891824267       -3.31230287956406        0.22073633853358
C            4.04741720338233       -3.87686785400289        0.87371806298466
C            4.59174436028077       -3.20817587677183        1.95416093757273
C            4.04625920599421       -2.00927764848475        2.40551764353324
C            2.96090573687646       -1.43237190777350        1.77574260144334
C            2.44480728412344       -2.07249088831984        0.65750617262020
C            1.42166195017344        0.71496592315511       -0.16509931262499
N            2.81056436301377        0.70573546573802       -0.31915141449473
C            3.50738155085781        0.00089777050973       -1.27627490969935
C            3.03256175489900       -0.65143716068785       -2.40477572855385
C            3.95145776541841       -1.30628451797122       -3.20356125000271
C            5.31022617418846       -1.28792935960493       -2.90543755894717
C            5.79433001044661       -0.58585037208193       -1.81393035608676
C            4.89105089722889        0.07084927705671       -0.99514109357361
C            5.02356149145938        0.88784048024869        0.18300572410654
C            6.10788292896922        1.30133415743183        0.93908221356062
C            5.87440472451676        2.08250534466268        2.05795371628968
C            4.58042267654103        2.43423177323188        2.43118515673598
C            3.48302720334665        2.02625564691584        1.69678836519901
C            3.71444888503773        1.26631557848015        0.55900157424668
C           -1.13434605580845        3.29720279635561        0.18462724563380
O           -2.25145280922038        3.74789153327310        0.41960981906059
N            0.02416933501034        4.07657527311106       -0.01227265868538
C            0.03290416881276        5.47589788191534       -0.01247368088534
C            1.17362801573768        6.17379352133135        0.38613103459389
C            1.17653113903707        7.55443626026194        0.37922669364332
C            0.04972069384260        8.25978971057424       -0.01078467747234
C           -1.08543380762716        7.56856032204290       -0.40185921388363
C           -1.09920105439353        6.18797445555965       -0.41050733063904
H           -2.00809442593547       -0.59377713860089        2.66368841604461
H           -3.65120563594604       -1.76253461788724        4.07736085198580
H           -6.04088321135817       -1.71377160191920        3.53497539016373
H           -6.86782346607498       -0.45001790530851        1.57800278169107
H           -7.09394816621333        1.10198945612126       -0.70113134444309
H           -6.66032616926430        2.48575045080598       -2.70479971147557
H           -4.37239246883832        3.06708166781617       -3.35444481234381
H           -2.44169345535069        2.31112555258775       -2.02151345023558
H            0.37390780939733       -1.92809292441168        2.35933235249898
H            0.31830622587763       -3.89058694907676        3.83167266930645
H           -1.31272707178842       -5.68765230704067        3.48588140060154
H           -2.96468766885185       -5.55438724508774        1.65035405890776
H           -4.50494678748430       -4.77892434141394       -0.49744888886523
H           -5.47949275691074       -3.59657338418675       -2.43771424966033
H           -4.49082473346335       -1.50807765600214       -3.25623438821524
H           -2.53777727650178       -0.51089701715242       -2.14909004252169
H           -0.39839860431451       -1.95186393846049       -2.34016293935548
H           -0.36603501005898       -3.93219140877902       -3.78878916669699
H            1.24590012492995       -5.74264503365146       -3.42351764232567
H            2.90211876245416       -5.60495891868717       -1.59210048029681
H            4.45446775269790       -4.82020362261365        0.54322231350352
H            5.44359361592288       -3.62623281896017        2.46896216763828
H            4.47625647683794       -1.51960552715802        3.26628705202105
H            2.53146545434941       -0.51551177327981        2.15086931158685
H            1.98520351382292       -0.63812166889452       -2.66252802373443
H            3.60528101812957       -1.83727148071429       -4.07737439833571
H            5.99854848878596       -1.81431979174706       -3.54933721905077
H            6.85262571329427       -0.54726316900183       -1.60621108904026
H            7.11131044188362        1.01762021796254        0.66057225823609
H            6.70684406833256        2.42166740166798        2.65621413022181
H            4.43029043499001        3.03722598760454        3.31421933063848
H            2.48251285073274        2.29633725425714        1.99780826487405
H            2.05100833648867        5.62953407331021        0.69542073423215
H            2.06464362751485        8.08380379260836        0.69179366363197
H            0.05619360444200        9.33966455360515       -0.00996641868594
H           -1.96709396185195        8.10900250490721       -0.71372868894232
H           -1.98304642719640        5.65470461538898       -0.72050075387290
