  50
        -80.79705902
 C          6.0826529868        2.7143738819       -0.7855337053
 C          4.8717845596        3.2181292652       -0.3021824100
 C          3.8321602786        2.3490112291       -0.0553837601
 C          4.0220525904        0.9829243909       -0.3101052820
 N          3.0151362642        0.0599479785       -0.1041378088
 C          1.6536861316        0.2847292441       -0.1731971617
 C          0.9456569577        1.3489907013       -0.6952438925
 C         -0.4439469267        1.3147714083       -0.6591704632
 C         -1.1218883890        0.1977310926       -0.1234335874
 N         -2.5146013771        0.1993654150       -0.0984740573
 C         -3.3153798447        1.2377870390        0.3336308749
 C         -2.9564046857        2.4621518655        0.8795539455
 C         -3.9714866086        3.3203326289        1.2668085597
 C         -5.3109018633        2.9679818969        1.1288653639
 C         -5.6755055078        1.7359091175        0.6141178652
 C         -4.6752554462        0.8608231699        0.2177388529
 C         -4.6835946004       -0.4729616697       -0.3199446634
 C         -5.6962211507       -1.3523646884       -0.6732580070
 C         -5.3482197889       -2.5816560973       -1.2058949556
 C         -4.0145459236       -2.9260979440       -1.4051362117
 C         -2.9872429839       -2.0635640028       -1.0622924018
 C         -3.3286074929       -0.8434132471       -0.4958149935
 C         -0.4291487280       -0.9042392695        0.3564523564
 C          0.9695112513       -0.8817675284        0.3249759724
 C          1.9551401484       -1.8282744478        0.6525649785
 N          1.8647860079       -3.0761048504        1.1350261345
 C          2.9782695922       -3.7584423820        1.3244615655
 C          4.2410804401       -3.2598665473        1.0645939235
 C          4.3780715576       -1.9572410150        0.5356844883
 C          3.2279642279       -1.2426807908        0.3423591333
 N          5.2023829879        0.5009004533       -0.7264919545
 C          6.1881800970        1.3450732724       -0.9546047171
 H          6.9140618737        3.3656905341       -0.9986359562
 H          4.7572585098        4.2741592059       -0.1069438895
 H          2.9071309046        2.6951487602        0.3757476315
 H          1.4418493905        2.1812066292       -1.1694746351
 H         -1.0146905191        2.1123429950       -1.1050491594
 H         -1.9204083683        2.7323891002        1.0112932142
 H         -3.7173802178        4.2811810383        1.6883627407
 H         -6.0747312191        3.6645664616        1.4396592197
 H         -6.7141915294        1.4567965185        0.5268736026
 H         -6.7315747860       -1.0792137229       -0.5386703929
 H         -6.1217346518       -3.2823633829       -1.4821254517
 H         -3.7742339218       -3.8821320102       -1.8450773043
 H         -1.9573789327       -2.3285155606       -1.2426329679
 H         -0.9459242184       -1.7449119328        0.7887979593
 H          2.8477634226       -4.7629411434        1.7045931945
 H          5.1110995557       -3.8681912403        1.2463000074
 H          5.3427759747       -1.5516917000        0.2781357536
 H          7.1100267223        0.8913860603       -1.2951116503
