50
 energy: -80.830732405560 gnorm: 0.000049864270 xtb: 6.7.1 (edcfbbe)
C            6.12304025674660        2.60298187509449        1.02638381881870
C            4.95105187987707        2.66471940537445        1.78852548163987
C            3.89769285612785        1.83641077306349        1.47078500443911
C            4.02994884058059        0.96240149856145        0.38203604732370
N            3.01068793153286        0.09888842854664        0.02473382696846
C            1.64868838558147        0.32182497040523        0.10610884282044
C            0.94056459848888        1.46459978639708        0.42214882741119
C           -0.44948800373471        1.42345847185593        0.39813022570771
C           -1.12872645278855        0.23039873347798        0.06701198896876
N           -2.52210299262862        0.21667304312235        0.07067125678516
C           -3.31413860638244       -0.76335895637431        0.63850621509958
C           -2.94447065583842       -1.88320626483677        1.37218123787206
C           -3.95231643695838       -2.69395038265849        1.86492846794061
C           -5.29478006561252       -2.39568582625918        1.64851383713192
C           -5.67035073074544       -1.26193097469578        0.94682200485991
C           -4.67745786514301       -0.43769175265445        0.44098423781428
C           -4.69834432997140        0.79992456459590       -0.29567344090851
C           -5.71905218360003        1.59066931981099       -0.79938254272743
C           -5.38312835588963        2.73177528558170       -1.50923322579073
C           -4.05184742342541        3.06908295479806       -1.73640283792652
C           -3.01670023975513        2.29265942541084       -1.24502413873262
C           -3.34651736005558        1.16696891656328       -0.50125327146025
C           -0.43507666313441       -0.91925347597692       -0.28579170412488
C            0.96365619734434       -0.87802556253998       -0.30933610829924
C            1.94839425102993       -1.81066045763220       -0.67754817751082
N            1.85338379786156       -3.06984486873056       -1.14110313466511
C            2.97638280322441       -3.72763385313292       -1.37612909138743
C            4.23963246432850       -3.18654004249645       -1.23202164180734
C            4.37662647005069       -1.86588470471059       -0.74580573887128
C            3.22189121350128       -1.18791520820262       -0.46909600761261
N            5.17202268106182        0.87961365367221       -0.31835267083001
C            6.17556039438220        1.67437113827639        0.00383337806563
H            6.96266695785170        3.24475127538674        1.23657005095502
H            4.87906043375100        3.33947751077292        2.62838774928110
H            3.00640592635472        1.81065216667723        2.07659491040584
H            1.43532022286522        2.38873048214029        0.67504501990040
H           -1.01645023704849        2.29293828105862        0.68600083098406
H           -1.90714162800210       -2.11179919533381        1.56086342444881
H           -3.68972566756818       -3.57415198478215        2.43242865441147
H           -6.05311736931540       -3.05341173982187        2.04627406077034
H           -6.71200796750029       -1.02133250852571        0.79977067558912
H           -6.75181384270218        1.31810423836276       -0.64562705733597
H           -6.16379597221782        3.36317414192543       -1.90646576375847
H           -3.82007269515204        3.95208784276055       -2.31300672072340
H           -1.98836699868572        2.54746943746951       -1.44796199823998
H           -0.95288498694308       -1.80830899112730       -0.60711600964856
H            2.84922003163859       -4.74854722303811       -1.71359654289520
H            5.11162591253507       -3.77431354890711       -1.46693524426992
H            5.34693235355367       -1.42321655651434       -0.58194942069517
H            7.06289209775920        1.55730567262208       -0.60573590555419
