50
 energy: -80.928802678212 gnorm: 0.000035190754 xtb: 6.7.1 (edcfbbe)
C            6.08167925241715        2.63181700525564        1.05735654326837
C            4.95049626854902        2.60917257750619        1.86256715141839
C            3.90994533154498        1.75749151657834        1.54214641727017
C            4.03771997708896        0.96071049234481        0.40121562485441
N            3.02538880894679        0.08327386125790        0.01470956219735
C            1.65611131605077        0.29212252863062        0.10365953251577
C            0.94413604649738        1.43126801180540        0.45605517426527
C           -0.43520372098571        1.37363803768085        0.43698004926337
C           -1.11766104287220        0.21398395574448        0.04772354471363
N           -2.52141649828806        0.20367398160642        0.05222761005110
C           -3.31658948697578       -0.74995651478096        0.65684087812232
C           -2.95140376183528       -1.86399645919313        1.39984279673110
C           -3.96046386547873       -2.65180339022177        1.92015318790016
C           -5.30409197140239       -2.34191199444012        1.71725758586781
C           -5.67363445328803       -1.22310154128406        0.99749705964132
C           -4.67709240033107       -0.41589791254403        0.46309927312680
C           -4.69373713760054        0.79729518757342       -0.30574199366036
C           -5.71267780183275        1.59168420157357       -0.81630685674993
C           -5.37503439390851        2.70938415507569       -1.55340875572590
C           -4.04092356090317        3.02935590890023       -1.79834079930609
C           -3.00995891258751        2.25498917733306       -1.30111146534039
C           -3.34217542268275        1.14428958924893       -0.53751542729387
C           -0.41393449816626       -0.91375994420918       -0.34932112905929
C            0.97188703200732       -0.87121696856191       -0.31941344050653
C            1.98119494793798       -1.82141486488610       -0.69625177182638
N            1.84883599337342       -3.06050874013295       -1.14955031287228
C            2.96782430601676       -3.70806138987205       -1.41937303372910
C            4.24438531626050       -3.17250084994162       -1.25018110477924
C            4.39790670361611       -1.88024360820007       -0.77512106919768
C            3.23217793871694       -1.18486239835032       -0.49585386989793
N            5.13065174686112        0.96178636565069       -0.35311767461724
C            6.12220628581869        1.77326067236617       -0.02846531755018
H            6.91095356625410        3.28485362514193        1.27569266528579
H            4.88594401765177        3.23809146253171        2.73828581648916
H            3.03708161141833        1.68156950252035        2.16972368659521
H            1.44059871078225        2.34947094527124        0.72661928154671
H           -1.00765102221355        2.23953657859982        0.73287881704548
H           -1.91359376309671       -2.10683408365391        1.57159813776408
H           -3.70173140758707       -3.52738512984622        2.49781809767917
H           -6.06356039145854       -2.98482308054453        2.13779752511693
H           -6.71471821705739       -0.97591217674290        0.85193697907798
H           -6.74671824560191        1.33423539013274       -0.64142059699037
H           -6.15244895185958        3.34166718543235       -1.95692209230063
H           -3.80749631695864        3.90078247428760       -2.39297854256141
H           -1.98028777664462        2.50163449295336       -1.51208948939818
H           -0.92275565135750       -1.80037406575121       -0.69203739654155
H            2.83866084163053       -4.71565305574616       -1.79200447406088
H            5.11003443375976       -3.76925200367860       -1.49191668279721
H            5.36945107586951       -1.43167718656674       -0.63950313833712
H            6.98513007609998        1.72553445489266       -0.68004960786269
