  50
        -80.89544089
 C          6.0893486300        2.6190456395        1.0584339173
 C          4.9433388513        2.6259767798        1.8419961593
 C          3.8976366362        1.7829264705        1.5182798426
 C          4.0353900259        0.9630682897        0.3945916608
 N          3.0228511664        0.0910627916        0.0057277454
 C          1.6545725155        0.2986993283        0.0962730950
 C          0.9409945165        1.4400379767        0.4365690271
 C         -0.4382049302        1.3795701886        0.4201860454
 C         -1.1190660420        0.2151834488        0.0436553397
 N         -2.5210394170        0.2030701543        0.0481693246
 C         -3.3136305394       -0.7551869332        0.6467305762
 C         -2.9462293794       -1.8723789349        1.3833068775
 C         -3.9538605371       -2.6627255260        1.9014922649
 C         -5.2978419168       -2.3528017675        1.7029809999
 C         -5.6695758524       -1.2319342149        0.9882227908
 C         -4.6746053441       -0.4214338269        0.4572454255
 C         -4.6935127826        0.7965505979       -0.3027204148
 C         -5.7137649708        1.5937344966       -0.8046099417
 C         -5.3782195809        2.7176189593       -1.5325346813
 C         -4.0450965861        3.0411528944       -1.7761152393
 C         -3.0127767421        2.2640163657       -1.2874268863
 C         -3.3426165566        1.1469390825       -0.5326936568
 C         -0.4137976519       -0.9152140700       -0.3423130687
 C          0.9708951433       -0.8693564359       -0.3142858254
 C          1.9798157802       -1.8218518270       -0.6854126520
 N          1.8467464552       -3.0644007179       -1.1255075124
 C          2.9641996412       -3.7125852387       -1.3938873825
 C          4.2407840530       -3.1730231929       -1.2369906500
 C          4.3954923668       -1.8764145872       -0.7754556627
 C          3.2298856045       -1.1815459036       -0.4955240318
 N          5.1429296587        0.9362971422       -0.3370888518
 C          6.1384433863        1.7396833105       -0.0099163607
 H          6.9227742535        3.2652666894        1.2814096306
 H          4.8710395555        3.2718480698        2.7049548817
 H          3.0142431121        1.7281948798        2.1334262746
 H          1.4354304836        2.3635762670        0.6932202149
 H         -1.0123512363        2.2466063647        0.7092407536
 H         -1.9080850560       -2.1140508734        1.5534264265
 H         -3.6938155104       -3.5389738160        2.4768334674
 H         -6.0554390298       -2.9982139663        2.1216294726
 H         -6.7105853496       -0.9846340058        0.8444070177
 H         -6.7467283348        1.3329170843       -0.6305350453
 H         -6.1562910126        3.3534182421       -1.9282720790
 H         -3.8133876612        3.9174153442       -2.3637800369
 H         -1.9837196083        2.5124532141       -1.4993960264
 H         -0.9204249316       -1.8053156982       -0.6776482638
 H          2.8360921515       -4.7242233548       -1.7546230623
 H          5.1064831711       -3.7698868109       -1.4782882690
 H          5.3661063597       -1.4235632890       -0.6501074015
 H          7.0125816793        1.6687876612       -0.6435940003
