50
 energy: -80.830864333378 gnorm: 0.000053839475 xtb: 6.7.1 (edcfbbe)
C            6.06217812565733        2.73443782738627       -0.78649100727118
C            4.86107956875127        3.21960187457270       -0.25953674404301
C            3.83042859739068        2.33751532884083       -0.01842686613173
C            4.02034629387330        0.98146055904728       -0.31899767800877
N            3.01784481491118        0.04990762623488       -0.11297902432433
C            1.65642123457107        0.27244236788269       -0.18480545873682
C            0.94963317170314        1.33827041349538       -0.70642235078187
C           -0.43980922892074        1.30600276024112       -0.66983965490665
C           -1.11965736344785        0.18824653859868       -0.13438128214350
N           -2.51132604981773        0.19351030226755       -0.10557081766475
C           -3.30785263808547        1.23721771515175        0.32678570718029
C           -2.94271798467310        2.46133583858671        0.87164252863614
C           -3.95352600132330        3.32384335415312        1.25993174298023
C           -5.29468188997013        2.97580939916569        1.12725494804734
C           -5.66504657712849        1.74259439035205        0.61599468270589
C           -4.66930578624126        0.86496723401371        0.21715018460741
C           -4.68457713708415       -0.47185088204230       -0.31937716445712
C           -5.70199403401661       -1.34561352761510       -0.66909744330369
C           -5.36133565939194       -2.57747416669352       -1.20376716455714
C           -4.02981799995118       -2.92689601546413       -1.40956630412323
C           -2.99766078897719       -2.06912388201067       -1.06954544427869
C           -3.33158509459572       -0.84765923429722       -0.49908252289202
C           -0.42632424026111       -0.91587276455849        0.34440474642490
C            0.97287593323753       -0.89560174115731        0.31381724340006
C            1.96080530053520       -1.83829981912384        0.64767095985888
N            1.86351097133061       -3.08604127409092        1.13985811248487
C            2.98513635024679       -3.75900433090323        1.34215881623996
C            4.24675694614794       -3.25770322395535        1.08989377846675
C            4.38540157230835       -1.95757575342353        0.54981989172402
C            3.23240451873635       -1.25156195210846        0.34078254561813
N            5.18956768628336        0.51340622856741       -0.78268710502607
C            6.16667947029183        1.37255603017982       -1.00575656366458
H            6.88789444156852        3.39422839643454       -0.99675749374622
H            4.74796071714403        4.26813105728498       -0.02758974540435
H            2.91065036881238        2.66553088547122        0.43866945483254
H            1.44941444003765        2.17164316647133       -1.17552443577961
H           -1.00839040982739        2.10399930027593       -1.11752929311123
H           -1.90569892403874        2.72828489857723        1.00129328494157
H           -3.69445057683477        4.28375682750426        1.68089269864535
H           -6.05594851463649        3.67471731051130        1.44010463703448
H           -6.70516753442182        1.46684283024359        0.53512447588673
H           -6.73588771890385       -1.06799654482332       -0.53323921633203
H           -6.13936185956358       -3.27356039639794       -1.47938985201375
H           -3.79468743410027       -3.88473622615197       -1.84871800766870
H           -1.96970732881555       -2.33939174970659       -1.25420974285481
H           -0.94300557566511       -1.75464152304830        0.78147555594625
H            2.85583248811390       -4.76127393269259        1.73075223856849
H            5.11847298950885       -3.86033305947157        1.28529355119328
H            5.35269947878852       -1.55466072181633        0.29732103071750
H            7.08083592856776        0.93379599227692       -1.38622493577255
