50
 energy: -80.928523221238 gnorm: 0.000051711701 xtb: 6.7.1 (edcfbbe)
C            5.96412125826646        2.62153712282905       -1.15009602214532
C            6.18765903212798        1.85558411717296       -0.01358643132861
C            5.22996179999192        0.94129746342992        0.38358594349678
C            4.07379002535627        0.81752708385643       -0.39184793378401
N            3.07501663693922       -0.09368509619971       -0.05026381195739
C            1.70849201392573        0.13243947401038       -0.15554378997626
C            1.02983732807498        1.24676080343163       -0.62682571858199
C           -0.34953080385756        1.22841331826753       -0.59179607639754
C           -1.05784890992522        0.13182885618795       -0.08121129471380
N           -2.46193043846310        0.16583377725556       -0.06407162533249
C           -3.29942110933432       -0.80731986351581       -0.57173645319368
C           -2.98589209395062       -1.98698560350008       -1.23258044351634
C           -4.03043456988053       -2.78091023797581       -1.66618631710061
C           -5.35896507630806       -2.41485915510020       -1.45692376600017
C           -5.67732508786180       -1.23287180060152       -0.81835631480165
C           -4.64442815640731       -0.41645154891653       -0.37477049199659
C           -4.60610572802643        0.85535008502903        0.29152367112861
C           -5.58750251596883        1.72212556743401        0.75582980440511
C           -5.19793903206876        2.88507860902227        1.39009505239069
C           -3.84901183838735        3.18210917082901        1.57624460750418
C           -2.85464637681367        2.33702436775021        1.12174826398199
C           -3.23936814588430        1.17727121687523        0.46290479373196
C           -0.38375086476255       -0.98056223701617        0.40016820772470
C            1.00311866140907       -0.97967822148412        0.35362693323559
C            1.99294627108732       -1.93981319856076        0.75442467237340
N            1.83297517637002       -3.15400654698670        1.26000535695017
C            2.93415237168991       -3.84420309705156        1.49550881052782
C            4.21920161144185       -3.38276902073801        1.21616602612863
C            4.40221984522041       -2.11394305117543        0.68942073484145
C            3.25945339825504       -1.35614406867143        0.47920912904656
N            3.84922830796846        1.56701968554124       -1.46439999990425
C            4.76902420930531        2.44403903767872       -1.82706597031419
H            6.68895903077570        3.34334051315480       -1.48991616162648
H            7.09162157356087        1.97897033227386        0.56453954672559
H            5.35174514918822        0.36234366366194        1.28472930863237
H            1.56622273870584        2.09054542795231       -1.02847429725504
H           -0.90443890265591        2.07044734212428       -0.97678469254862
H           -1.96015148469534       -2.27395563882990       -1.40876339917949
H           -3.81214871658656       -3.70579314324140       -2.18024170813844
H           -6.14741209653461       -3.06488486509400       -1.80747925616218
H           -6.70673049015694       -0.94308681885146       -0.66817258456206
H           -6.63292110551171        1.48498514291781        0.62530141174572
H           -5.94574321327470        3.57299875051841        1.75700866009560
H           -3.57482006773525        4.09234427057671        2.08978830151607
H           -1.81265405691588        2.56843088299139        1.28381456663526
H           -0.91454269433616       -1.82422729578952        0.81131068348524
H            2.78161369951008       -4.82955959337744        1.91517456878687
H            5.06939184190477       -4.01995774936224        1.40293254921437
H            5.38941347788271       -1.75552018356067        0.43881926735387
H            4.52549911736698        3.02554395282345       -2.70678431114442
