  65
       -105.56365827
 C         -4.3666491726        0.6121573143       -2.4082280508
 C         -5.4466931309        0.7297394934       -1.3136905595
 C         -6.8040380076        0.8744236161       -2.0008517464
 C         -5.1194615494        1.9130416474       -0.4190453533
 C         -5.8057755876        3.1171949400       -0.4272482320
 C         -5.4518190783        4.1428383191        0.4333898354
 C         -4.4236405507        3.9668200487        1.3419411789
 C         -3.7334351842        2.7696855226        1.3747669325
 C         -4.0568777865        1.7600896848        0.4770574517
 N         -3.3988888031        0.5123301399        0.5148602836
 C         -2.0356525468        0.3671089559        0.3905042710
 C         -1.1903138175        1.4883783836        0.2974737212
 C          0.1634640481        1.3225566662        0.1879724718
 C          0.7462614274        0.0499370362        0.1473160883
 C         -0.0863900842       -1.0890414110        0.1594890068
 C         -1.4595493997       -0.8996321617        0.2690319500
 C          0.5060109265       -2.4180494671        0.0582915779
 C         -0.2606331178       -3.5883160795        0.0424388636
 C          0.3260031262       -4.8323930965       -0.0497252020
 C          1.7079656807       -4.9570271797       -0.1276817110
 C          2.4883494842       -3.8245252520       -0.1140866016
 C          1.9060460529       -2.5569921387       -0.0231107050
 C          2.7595037126       -1.3895249762       -0.0139665366
 N          4.0638267196       -1.5509923984       -0.0814051918
 C          4.8368285608       -0.4523383907       -0.0764295111
 C          6.2356535503       -0.5873971232       -0.1441846253
 C          7.0346026364        0.5323205772       -0.1410437908
 C          8.4413355194        0.4032268750       -0.2076086461
 N          9.5793825178        0.2807577272       -0.2618899934
 C          6.4525542831        1.8333038594       -0.0701153448
 C          7.2938595085        2.9708987990       -0.0682918679
 N          7.9607803113        3.9024824545       -0.0653789364
 C          5.0881203574        1.9840654478       -0.0033768477
 C          4.2535647171        0.8485558227       -0.0039013695
 N          2.9247620857        1.0047060884        0.0665576787
 C          2.1721602116       -0.0821405696        0.0651707065
 C         -4.3054319205       -0.5678638813        0.4780746766
 C         -4.1999800552       -1.6241124471        1.3749318693
 C         -5.1275159751       -2.6484462739        1.3445667819
 C         -6.1726487230       -2.6026439455        0.4392088321
 C         -6.3034814058       -1.5256490392       -0.4215519447
 C         -5.3776788621       -0.4939795842       -0.4165055912
 H         -3.3708493894        0.5079610029       -1.9863088700
 H         -4.3798332394        1.5011516877       -3.0352879952
 H         -4.5663641762       -0.2573701167       -3.0310634788
 H         -6.8087318550        1.7542783276       -2.6393017738
 H         -6.9957144829        0.0139905429       -2.6370716208
 H         -7.6050199788        0.9615459320       -1.2701065306
 H         -6.6267042714        3.2717999434       -1.1081766900
 H         -5.9933551390        5.0761056542        0.4032834592
 H         -4.1662924089        4.7538170122        2.0343903824
 H         -2.9570136883        2.6061702376        2.1069480395
 H         -1.6064439435        2.4824075189        0.2869525869
 H          0.8177742254        2.1776131830        0.1259986303
 H         -2.1136994435       -1.7532591053        0.2380658695
 H         -1.3361523904       -3.5353065391        0.1005880771
 H         -0.2959750561       -5.7154697629       -0.0606415244
 H          2.1623393672       -5.9336957203       -0.1980942514
 H          3.5637635425       -3.8822651563       -0.1730198816
 H          6.6628473491       -1.5772669290       -0.1975809276
 H          4.6361422955        2.9626944257        0.0512215239
 H         -3.4037307025       -1.6285427797        2.1044852851
 H         -5.0405570954       -3.4721344695        2.0369605536
 H         -6.8999217223       -3.3998717796        0.4118826568
 H         -7.1403212261       -1.5031295764       -1.1002633391
