65
 energy: -105.562969893171 gnorm: 0.000109354167 xtb: 6.7.1 (edcfbbe)
C           -6.24937146498780       -0.76662838290436       -0.00010107801021
C           -5.32968205994909        0.46808895271028        0.00007791453161
C           -6.16968532904092        1.75815984561525        0.00029486533879
C           -4.48127561818856        0.44134159008391       -1.25750215884984
C           -5.09778123509107        0.46433164912902       -2.50087311848938
C           -4.37513510258569        0.44192297164291       -3.67954845374596
C           -2.99403103595919        0.39510018094042       -3.62632027907357
C           -2.35498081851961        0.37093524275969       -2.40448772255731
C           -3.08445424441263        0.39371591106250       -1.21267939581185
N           -2.41397689559092        0.36609836374611        0.00000437912884
C           -0.99379677378145        0.33131510181275       -0.00002040167182
C           -0.26812932396732        1.52320718602091        0.00009611394925
C            1.10471504931787        1.47186823932529        0.00008822992715
C            1.77617883697590        0.24489030242402       -0.00003350314855
C            1.05484218810496       -0.96636557825376       -0.00013967941787
C           -0.34064871771297       -0.88759823904028       -0.00013618188144
C            1.76421593597758       -2.23880387060993       -0.00022736692971
C            1.09943576182751       -3.46984846892150       -0.00027925053298
C            1.79361043824827       -4.66085686681000       -0.00035240173658
C            3.18374214884335       -4.66810431876064       -0.00036786949312
C            3.86525052674006       -3.47328432795366       -0.00031233992152
C            3.17357161611797       -2.25836573710489       -0.00024395366432
C            3.91905979770792       -1.02060956395544       -0.00016233834764
N            5.23624962729619       -1.06550501957589       -0.00018433748830
C            5.90789564631354        0.09472412968430       -0.00006838867741
C            7.31693886347194        0.08362853309374       -0.00005529746706
C            8.01042828676439        1.26972238680088        0.00009793649487
C            9.42599952238211        1.26763454175142        0.00005116203804
N           10.57128461594398        1.25092437289693        0.00023072968153
C            7.31383045361279        2.51629136182633        0.00022929719641
C            8.05393922376764        3.72300694033236        0.00042763024269
N            8.64042009654568        4.70691434194244        0.00047042083018
C            5.94028841950511        2.54705652610626        0.00020672148179
C            5.21163562728252        1.34097036938473        0.00006370904350
N            3.87157454340449        1.37680358606981        0.00006623807376
C            3.22040470718186        0.23083121781200       -0.00004125228920
C           -3.08440669008254        0.39332802546626        1.21272389517237
C           -2.35488678366529        0.37016801257629        2.40449670004346
C           -2.99388909021082        0.39393976677014        3.62636187992972
C           -4.37499082605050        0.44074465968386        3.67965884717014
C           -5.09768284843538        0.46353233252235        2.50101890128667
C           -4.48122636059051        0.44094337931788        1.25761631534775
H           -5.64969927060303       -1.67508378177411       -0.00023298271677
H           -6.88595536648697       -0.77626405496410       -0.88045916725145
H           -6.88595710682613       -0.77651935700983        0.88025290220625
H           -6.80456904395522        1.80827696374120       -0.87988612661577
H           -6.80448130619135        1.80804568765961        0.88055222848928
H           -5.51383676600952        2.62683964535103        0.00037616990401
H           -6.17512073155882        0.50108140182932       -2.55826841299151
H           -4.88726736798482        0.46131715521187       -4.62931881648526
H           -2.41034087437082        0.37747945664499       -4.53458950983712
H           -1.27646892544557        0.33520867063618       -2.36927942777109
H           -0.79352082888557        2.46592325304367        0.00019541036542
H            1.69794030755703        2.37245331906881        0.00018200921854
H           -0.94793631497052       -1.77843884248110       -0.00021750007240
H            0.02215896070694       -3.50530271305878       -0.00025554925167
H            1.25044156690130       -5.59422077438252       -0.00039614539720
H            3.72163380883836       -5.60380941866565       -0.00040858863311
H            4.94326121841633       -3.44086000229282       -0.00030518093704
H            7.83138979410975       -0.86514334017153       -0.00016089173571
H            5.40148796199185        3.48222525462397        0.00030874163398
H           -1.27637629864205        0.33445581191453        2.36923828302133
H           -2.41016180590928        0.37603989241392        4.53460170003408
H           -4.88708450381152        0.45985159031155        4.62945591294525
H           -6.17501982138897        0.50027453493594        2.55846782418211
