65
 energy: -105.563689967426 gnorm: 0.000034247152 xtb: 6.7.1 (edcfbbe)
C           -4.35970434590724        0.61951146128393       -2.40729006741062
C           -5.44314098131831        0.73134317979525       -1.31548610180835
C           -6.79891078285009        0.87395146392158       -2.00619109663335
C           -5.12138992717687        1.91335417247358       -0.41709937092275
C           -5.81215456908667        3.11495536034482       -0.42288390668769
C           -5.46298682614801        4.13953988931416        0.44098573790486
C           -4.43453908431136        3.96521965019178        1.34956652836356
C           -3.73990631384249        2.77055705411101        1.38001884482268
C           -4.05949106207122        1.76169971876392        0.48013637387973
N           -3.39930406590133        0.51510543926901        0.51744329345385
C           -2.03589139318726        0.37082533839403        0.39418289106545
C           -1.19003730055245        1.49184696079815        0.30379933503435
C            0.16373633695439        1.32543818373500        0.19338422217719
C            0.74620717150224        0.05267525921519        0.15085619180206
C           -0.08703096505561       -1.08590165355131        0.16313128709887
C           -1.46005966918524       -0.89585882098016        0.27154361767953
C            0.50393074612489       -2.41561426338497        0.06373972823680
C           -0.26360626294686       -3.58536719481640        0.05312365829642
C            0.32201818426634       -4.83009551445996       -0.03649942769261
C            1.70376057593692       -4.95590090873080       -0.11733301837883
C            2.48495508017488       -3.82392593999028       -0.10857644832281
C            1.90364201336794       -2.55575277699835       -0.01969767041342
C            2.75774745054830       -1.38877889427052       -0.01372961459694
N            4.06168545804545       -1.55174332575591       -0.08391090475851
C            4.83598510143240       -0.45406349597551       -0.08091377084658
C            6.23443357160200       -0.59123334517094       -0.15165198727915
C            7.03501500506843        0.52725272134383       -0.15064320679459
C            8.44145169095120        0.39641423005813       -0.22050860107510
N            9.57940353296130        0.27406471134822       -0.27724129786076
C            6.45480465479190        1.82908261286890       -0.07896565772708
C            7.29826486700615        2.96511842722260       -0.07962435651969
N            7.96795264054613        3.89478341355161       -0.07919308869793
C            5.09072955989429        1.98183835584072       -0.00915760532259
C            4.25444723613906        0.84753888526590       -0.00746739555496
N            2.92592449340955        1.00530015099391        0.06586714056097
C            2.17194048394361       -0.08064779389131        0.06634609620328
C           -4.30399561866314       -0.56663169363654        0.47702551546572
C           -4.19878414989681       -1.62374821667345        1.37288362760155
C           -5.12328458259470       -2.65065071057041        1.33773079204597
C           -6.16527211383412       -2.60649536489263        0.42862415948215
C           -6.29640080878109       -1.52840601660533       -0.43070839460279
C           -5.37355309726181       -0.49410841716538       -0.42079753885318
H           -3.36504072043061        0.51422090531676       -1.98298075327258
H           -4.37182566237883        1.51128691783424       -3.03039011802722
H           -4.55677274341690       -0.24738183276892       -3.03462374072426
H           -6.80423271480139        1.75541679449086       -2.64237183459868
H           -6.98621364691510        0.01457503808441       -2.64515094181477
H           -7.60229532227519        0.95681481994868       -1.27760413357003
H           -6.63306845042127        3.26820135437356       -1.10415107265869
H           -6.00845544387677        5.07060104030332        0.41329660695924
H           -4.18072283504413        4.75147256427228        2.04416863444573
H           -2.96338450983288        2.60814116506397        2.11232682011683
H           -1.60588018209225        2.48603912174232        0.29549552009095
H            0.81834366046029        2.18031910835307        0.13213029523321
H           -2.11443163657948       -1.74915831351314        0.23860863929304
H           -1.33894804269371       -3.53162614321917        0.11407853404733
H           -0.30061986413423       -5.71274529225069       -0.04315409004737
H            2.15726739971297       -5.93304570177027       -0.18626596567218
H            3.56018449580047       -3.88258778320764       -0.16973673312182
H            6.65985755068350       -1.58175399252001       -0.20600788525271
H            4.64040057333875        2.96118193724535        0.04619155671282
H           -3.40490151731826       -1.62702400993458        2.10503894207344
H           -5.03635515457638       -3.47519205454705        2.02911061565019
H           -6.88992405776625       -3.40595657671172        0.39727384424803
H           -7.13095567829242       -1.50720312596326       -1.11229151552063
