  42
        -65.18929286
 N          3.3925376877        2.9870975434       -0.3044138131
 C          3.1637884129        1.8650182618       -0.1835783914
 C          2.8030317675        0.5115953134       -0.0363814260
 C          3.7745684242       -0.4764681772        0.2036608065
 C          5.1825637526       -0.3919638766        0.1353601541
 C          5.8983858211        0.6977827592       -0.4103330124
 C          7.2736138678        0.6935317674       -0.4380130261
 C          7.9918984326       -0.3847301213        0.0663674727
 C          7.3105387781       -1.4775472339        0.5931084497
 C          5.9376722812       -1.4879210981        0.6221865349
 C          1.4081855901        0.2387210238       -0.0685377258
 C          0.4618315891        1.3013887195       -0.1022649952
 C         -0.8782783065        1.0739278212       -0.0937055924
 C         -1.4088810543       -0.2457513146       -0.0669797678
 C         -2.8036147553       -0.5168136072       -0.0330274624
 C         -3.1677015559       -1.8688124756       -0.1827799143
 N         -3.4003419997       -2.9904517550       -0.2992448949
 C         -3.7729997996        0.4735221603        0.2107669403
 C         -5.1804869762        0.3937501309        0.1384123832
 C         -5.9340307567        1.4889218874        0.6299379691
 C         -7.3066956480        1.4824965130        0.5970952008
 C         -7.9896251906        0.3947135063        0.0619743418
 C         -7.2729540569       -0.6823913884       -0.4473341400
 C         -5.8979038651       -0.6907245893       -0.4160766283
 C         -0.4625660362       -1.3086623078       -0.0964313223
 C          0.8775993577       -1.0810167847       -0.0891331855
 H          3.3948395437       -1.4370607190        0.5234106549
 H          5.3611009031        1.5345106684       -0.8233486008
 H          7.7988896923        1.5371609675       -0.8605011042
 H          9.0707445389       -0.3773117062        0.0430859107
 H          7.8638137690       -2.3210336163        0.9789884936
 H          5.4133121667       -2.3383009054        1.0347535968
 H          0.8279527775        2.3170153016       -0.1248977861
 H         -1.5464317015        1.9199337655       -0.1306793286
 H         -3.3904351056        1.4305131591        0.5378045066
 H         -5.4082857317        2.3351742332        1.0490634351
 H         -7.8587504296        2.3250118792        0.9867552487
 H         -9.0684178213        0.3904211123        0.0359552922
 H         -7.7996108619       -1.5219000717       -0.8762889219
 H         -5.3614397335       -1.5263772005       -0.8325040183
 H         -0.8289679113       -2.3243123626       -0.1136103613
 H          1.5455225875       -1.9274205327       -0.1210013378
