  112
       -169.62158796
 C         -6.1297136535       -5.1518383795        1.2393476387
 C         -5.6974396075       -4.9164513159       -0.0554475309
 C         -5.5745780598       -3.6265198551       -0.5315084784
 C         -5.8739766912       -2.5354548471        0.2880641584
 N         -5.7415274362       -1.2365043171       -0.1924041016
 C         -4.8378700069       -0.9504265421       -1.2256844273
 C         -3.5468760616       -1.4779151741       -1.2137382687
 C         -2.6694496065       -1.1802033466       -2.2363968796
 C         -3.0636801817       -0.3640470454       -3.2853293218
 C         -4.3456611808        0.1585405664       -3.3034447484
 C         -5.2307494648       -0.1343477266       -2.2847067066
 C         -6.5455972451       -0.1993851427        0.3016801901
 C         -7.9019339546       -0.4146448631        0.5320862353
 C         -8.7088254813        0.6021929222        1.0061194648
 C         -8.1719335096        1.8570800289        1.2458896797
 C         -6.8285189816        2.0848108509        1.0095533553
 C         -5.9938898051        1.0728891741        0.5443562081
 C         -4.5617470304        1.3242194709        0.3257317292
 C         -4.1361614519        2.2406499789       -0.6671344692
 C         -5.0542579646        2.9940072672       -1.4194672116
 C         -4.6317925046        3.9294687475       -2.3410547921
 C         -3.2745460712        4.1591120981       -2.5189316221
 C         -2.3494387898        3.4083388347       -1.8170711855
 C         -2.7450340620        2.3974969786       -0.9306129266
 C         -1.7809381682        1.5893006842       -0.2466935969
 C         -0.4027583333        1.6356905726       -0.6525048956
 C         -0.0947589311        1.4755319432       -2.0192467462
 C          1.1915057674        1.3367658545       -2.4573360925
 C          2.2809733779        1.3984015521       -1.5581315043
 C          3.6146511409        1.2481234422       -1.9811109187
 C          4.6478787437        1.2809555688       -1.0858129737
 C          4.4135310386        1.4868880421        0.2919636970
 C          5.4532700530        1.4447688174        1.2503926416
 C          6.7922050451        0.9319410020        0.9338457128
 C          7.9021133995        1.6980956979        1.2862569550
 C          9.1919271745        1.2608216539        1.0589349058
 C          9.3974121402        0.0139350997        0.4894761887
 C          8.3152086743       -0.7728404585        0.1517607016
 C          7.0057241109       -0.3343302323        0.3541975402
 N          5.9529170799       -1.1833178778       -0.0170894626
 C          4.8141907774       -1.3190536226        0.7820993547
 C          4.9107928706       -1.2584535149        2.1709270013
 C          3.7732639586       -1.3401591629        2.9508752715
 C          2.5290455701       -1.4997040003        2.3650821195
 C          2.4318439055       -1.5925209054        0.9861616752
 C          3.5602615029       -1.5024841092        0.1980852667
 C          6.0682723350       -1.9407523360       -1.1858537842
 C          6.7135714659       -1.4276297540       -2.3122168791
 C          6.8208149034       -2.1834830454       -3.4628290111
 C          6.2884541955       -3.4611341511       -3.5176564713
 C          5.6522384259       -3.9801933918       -2.4018063814
 C          5.5447599593       -3.2334337608       -1.2452426905
 C          5.1912516505        1.8493343477        2.5588373482
 C          3.9222866337        2.1874576892        2.9660229591
 C          2.8384628465        2.0965255584        2.0750572257
 C          1.5088243012        2.3535706244        2.4737132070
 C          0.4681516539        2.2004656602        1.6024177324
 C          0.6808092731        1.7954467645        0.2668263971
 C          2.0140422650        1.6490595122       -0.1887212539
 C          3.0899558484        1.7504011041        0.7256746159
 C         -2.2236122763        0.6842031263        0.7720890893
 C         -1.3580009669       -0.2257789975        1.3936658771
 C         -1.7987142025       -1.0944527625        2.3735781896
 C         -3.1261923603       -1.0695664995        2.7816959719
 C         -4.0156750054       -0.2302141034        2.1459868734
 C         -3.6093131702        0.6064818437        1.0920550300
 C         -6.3150851848       -2.7821134738        1.5899624283
 C         -6.4407900660       -4.0759869159        2.0542942684
 H         -6.2273250353       -6.1615698584        1.6071693980
 H         -5.4625092580       -5.7462051196       -0.7060188593
 H         -5.2523074492       -3.4554332319       -1.5473932507
 H         -3.2376381721       -2.1048691813       -0.3912930760
 H         -1.6655961198       -1.5785033369       -2.2110292549
 H         -2.3766788967       -0.1412311762       -4.0880647602
 H         -4.6595275336        0.7954586328       -4.1172021575
 H         -6.2319722270        0.2698405414       -2.2986296870
 H         -8.3187744380       -1.3900794773        0.3286937190
 H         -9.7581925113        0.4170790752        1.1795391594
 H         -8.7972131421        2.6543819167        1.6181081273
 H         -6.4003550798        3.0554299320        1.2145390612
 H         -6.1107487610        2.8392993878       -1.2663445957
 H         -5.3572949294        4.4945075743       -2.9078237574
 H         -2.9375395002        4.9210710507       -3.2061423182
 H         -1.2984035155        3.6110890132       -1.9515164377
 H         -0.9144237471        1.3694216992       -2.7133766134
 H          1.3927132347        1.1468186563       -3.5024096648
 H          3.8116830933        1.0989840091       -3.0339467443
 H          5.6642878963        1.1716089001       -1.4293287470
 H          7.7346438868        2.6726162288        1.7218094004
 H         10.0313468389        1.8841843608        1.3266718648
 H         10.3991912572       -0.3510246745        0.3200878176
 H          8.4742661003       -1.7537486098       -0.2716503830
 H          5.8801835926       -1.1409020093        2.6320642592
 H          3.8602778638       -1.2814344961        4.0258609447
 H          1.6423248840       -1.5504446324        2.9783453568
 H          1.4674931788       -1.7238461798        0.5172817343
 H          3.4753201810       -1.5479960915       -0.8767646887
 H          7.1358784870       -0.4348336481       -2.2812838504
 H          7.3202103052       -1.7685531970       -4.3261053039
 H          6.3727693058       -4.0482994540       -4.4191852125
 H          5.2441807704       -4.9799564980       -2.4283830482
 H          5.0593511138       -3.6487991532       -0.3747940750
 H          6.0008665307        1.8507024787        3.2752358576
 H          3.7387752955        2.4870474743        3.9876520823
 H          1.3244841992        2.6653229881        3.4920368594
 H         -0.5425496844        2.3899882067        1.9309020883
 H         -0.3204072503       -0.2504900721        1.1039489648
 H         -1.1044827132       -1.7845637628        2.8305565810
 H         -3.4646615981       -1.7155076613        3.5784649463
 H         -5.0473374854       -0.2081595290        2.4586704432
 H         -6.5601683552       -1.9562181967        2.2388026976
 H         -6.7808971513       -4.2454543936        3.0655914478
