  57
  -90.0321740369000       0.187849386202685      !
 C          4.8396040928        3.3212449727        0.5212908647
 C          5.3131202569        2.3408470172       -0.3349151077
 C          4.6561799267        1.1308918220       -0.4442696141
 C          3.5139535542        0.8852719768        0.3134771834
 N          2.8363114886       -0.3378253153        0.2069161651
 C          3.5535049991       -1.5318718475        0.0961972621
 C          3.0768743329       -2.5808459308       -0.6903407581
 C          3.7944324702       -3.7561893940       -0.7932593381
 C          4.9976610476       -3.9061217809       -0.1230868308
 C          5.4785184195       -2.8659406706        0.6551665672
 C          4.7650897585       -1.6889337165        0.7700534876
 C          1.4455594929       -0.3401354734        0.2101714914
 C          0.7007164554       -1.3387398936        0.8072095699
 C         -0.6969214543       -1.3388990017        0.8077981765
 C         -1.4424411756       -0.3402761052        0.2114306121
 N         -2.8327750154       -0.3379499862        0.2096861349
 C         -3.5114231276        0.8856310408        0.3070258014
 C         -4.6504696661        1.1258280726       -0.4570386707
 C         -5.3095841933        2.3353640649       -0.3565755437
 C         -4.8407981436        3.3207127118        0.4965078703
 C         -3.7085707345        3.0848915547        1.2582260705
 C         -3.0495404288        1.8744551773        1.1726590787
 C         -3.5521467081       -1.5314837583        0.1059944295
 C         -3.0811252616       -2.5846048867       -0.6782177799
 C         -3.8039210424       -3.7571761518       -0.7763076830
 C         -5.0063887934       -3.9001318934       -0.1034308211
 C         -5.4810001906       -2.8562005190        0.6736685392
 C         -4.7623892310       -1.6819698269        0.7836886540
 C         -0.7188983970        0.6986245705       -0.4260267480
 N         -1.2152186017        1.7304201639       -1.1071584216
 S          0.0008241984        2.6095787681       -1.6845473272
 N          1.2175334419        1.7305775259       -1.1078054016
 C          0.7215776261        0.6987691428       -0.4264728050
 C          3.0469943517        1.8694337875        1.1818925863
 C          3.7041003511        3.0802131013        1.2766292075
 H          5.3530030432        4.2676809753        0.6001638614
 H          6.1967895660        2.5227758438       -0.9290472853
 H          5.0177780135        0.3711372067       -1.1215297610
 H          2.1459062468       -2.4632571267       -1.2251517409
 H          3.4147881220       -4.5585796696       -1.4087445877
 H          5.5564446041       -4.8256623206       -0.2080259428
 H          6.4143052831       -2.9739089979        1.1835644653
 H          5.1384006772       -0.8830547252        1.3846493776
 H          1.2171784039       -2.1476197863        1.3021231478
 H         -1.2127276285       -2.1477746561        1.3033716156
 H         -5.0075560648        0.3622522904       -1.1323493479
 H         -6.1895640811        2.5138938346       -0.9569894404
 H         -5.3546545518        4.2674719139        0.5670151816
 H         -3.3415794310        3.8457835891        1.9314217559
 H         -2.1733013414        1.6855385062        1.7762987397
 H         -2.1512650180       -2.4720258770       -1.2160325012
 H         -3.4286578811       -4.5632061322       -1.3896296630
 H         -5.5681712547       -4.8183309504       -0.1831142629
 H         -6.4145227941       -2.9600576011        1.2070936315
 H         -5.1304543470       -0.8729562630        1.3973919146
 H          2.1689807353        1.6761290878        1.7815093792
 H          3.3334766070        3.8369354629        1.9526537199
  57
  -90.0319844086000       0.153696029229853      !
 C          4.8161095742        2.8804838815       -1.8030858369
 C          5.2976904301        1.5820271765       -1.8250621314
 C          4.6487009883        0.5834537592       -1.1257587752
 C          3.5067808892        0.8780005104       -0.3852187001
 N          2.8400036805       -0.1291328247        0.3270156115
 C          3.5683434911       -1.1040596923        1.0137175455
 C          3.1017157231       -2.4161791022        1.0958637154
 C          3.8308806102       -3.3734486876        1.7732792138
 C          5.0351528893       -3.0447787807        2.3741148161
 C          5.5048722584       -1.7441122224        2.2931981268
 C          4.7800720598       -0.7779140689        1.6233527801
 C          1.4492222033       -0.1365603496        0.3471250046
 C          0.7204926584       -0.4972926811        1.4641906875
 C         -0.6767981465       -0.5073317139        1.4814867631
 C         -1.4384662673       -0.1359712048        0.3900752978
 N         -2.8289772833       -0.1276328357        0.4125844442
 C         -3.5213580081        0.2557628564        1.5641238179
 C         -3.0207297467        1.2556725621        2.3981660745
 C         -3.7140184622        1.6280529683        3.5329051833
 C         -4.9161276104        1.0187912349        3.8536703954
 C         -5.4204257725        0.0285000076        3.0266929658
 C         -4.7314726258       -0.3557580570        1.8930382845
 C         -3.5328455638       -0.5026597624       -0.7410626257
 C         -3.0937321971       -1.5789523526       -1.5086820388
 C         -3.7783597013       -1.9407324162       -2.6520472757
 C         -4.9135001898       -1.2470489175       -3.0372031150
 C         -5.3590749580       -0.1832149348       -2.2702854384
 C         -4.6747511889        0.1923998683       -1.1309385778
 C         -0.7320092268        0.2463547647       -0.7774936400
 N         -1.2451467534        0.6450207224       -1.9406257281
 S         -0.0437766902        0.9530511642       -2.9638245973
 N          1.1869406223        0.6073990268       -1.9887115273
 C          0.7083131106        0.2366781450       -0.8018581249
 C          3.0317063191        2.1872274568       -0.3564114546
 C          3.6806406211        3.1769262146       -1.0679069035
 H          5.3231447825        3.6573157073       -2.3553236980
 H          6.1805846224        1.3426190335       -2.3993781897
 H          5.0161885806       -0.4318252531       -1.1535507616
 H          2.1696139359       -2.6790762896        0.6177206690
 H          3.4599357200       -4.3866373523        1.8246356232
 H          5.6032238570       -3.7968941958        2.8999923664
 H          6.4406380444       -1.4771642297        2.7616552256
 H          5.1448566421        0.2372334493        1.5690742775
 H          1.2503999176       -0.7915432012        2.3578209507
 H         -1.1800007874       -0.8049977830        2.3893010806
 H         -2.0905906834        1.7426366134        2.1446171686
 H         -3.3164455065        2.4070497985        4.1668633103
 H         -5.4559004078        1.3144261706        4.7403365991
 H         -6.3547089150       -0.4556019381        3.2705482210
 H         -5.1223810702       -1.1351333608        1.2555143639
 H         -2.2154920956       -2.1282538318       -1.2008610167
 H         -3.4288599821       -2.7758735593       -3.2414777135
 H         -5.4481673958       -1.5343524865       -3.9300341021
 H         -6.2413832012        0.3648651479       -2.5667077272
 H         -5.0147139259        1.0295822675       -0.5391400662
 H          2.1540038384        2.4216831566        0.2286820275
 H          3.3031944687        4.1886972694       -1.0399678061
  57
  -90.0319820951000       0.153320220994653      !
 C          4.8235778023        3.3032637315        0.7926709452
 C          5.3274444130        2.3743592740       -0.1028131409
 C          4.6800207894        1.1708802258       -0.3022154503
 C          3.5163414409        0.8778968336        0.4049538059
 N          2.8467739251       -0.3376025511        0.2159515298
 C          3.5552423785       -1.5236465719        0.0153324183
 C          3.0547477048       -2.5150978312       -0.8292344649
 C          3.7615673975       -3.6846665230       -1.0269670444
 C          4.9774689117       -3.8863333938       -0.3943543041
 C          5.4797260484       -2.9053318352        0.4450056898
 C          4.7772837790       -1.7348687482        0.6548062572
 C          1.4534744522       -0.3389652834        0.2142633286
 C          0.7071625020       -1.3355848526        0.8106518277
 C         -0.6904052612       -1.3310335295        0.8113471936
 C         -1.4341074834       -0.3362125306        0.2045994304
 N         -2.8223854526       -0.3337117862        0.1999069725
 C         -3.5103877191        0.8899319754        0.2196831995
 C         -4.6368647298        1.0742493981       -0.5775100698
 C         -5.3075694280        2.2814751437       -0.5604843972
 C         -4.8630784357        3.3183077495        0.2429600414
 C         -3.7453605932        3.1366435080        1.0402527399
 C         -3.0749581960        1.9293358467        1.0379023014
 C         -3.5466897243       -1.5303926741        0.1871013773
 C         -3.0994302645       -2.6326974923       -0.5409950777
 C         -3.8259395656       -3.8072825112       -0.5418693560
 C         -5.0091188190       -3.9026124019        0.1725585547
 C         -5.4626404815       -2.8080332624        0.8902021650
 C         -4.7397989625       -1.6311590100        0.9030050786
 C         -0.7063392985        0.6968552077       -0.4396875143
 N         -1.1959895685        1.7236300564       -1.1334292623
 S          0.0249260480        2.6015442943       -1.7022201879
 N          1.2366783573        1.7281851893       -1.1068254680
 C          0.7341233185        0.6988832615       -0.4267724605
 C          3.0163579352        1.8122616891        1.3099860415
 C          3.6645170967        3.0173507288        1.4945836478
 H          5.3306532168        4.2445022172        0.9423548458
 H          6.2271653008        2.5933198222       -0.6589932957
 H          5.0658409114        0.4536498624       -1.0115707363
 H          2.1139499932       -2.3558327422       -1.3354217800
 H          3.3641666402       -4.4405516756       -1.6884510982
 H          5.5289373869       -4.8002173512       -0.5547098664
 H          6.4240717592       -3.0555659360        0.9473366343
 H          5.1674930061       -0.9764690641        1.3174142594
 H          1.2226051394       -2.1453573411        1.3054372402
 H         -1.2073676993       -2.1329862743        1.3166026897
 H         -4.9748328022        0.2686732038       -1.2128249245
 H         -6.1772666783        2.4167241880       -1.1865497149
 H         -5.3855358669        4.2630991658        0.2484280184
 H         -3.3982255150        3.9385878632        1.6753461466
 H         -2.2107617846        1.7827548240        1.6698515622
 H         -2.1844334537       -2.5582487829       -1.1099654390
 H         -3.4692583150       -4.6525559146       -1.1119480343
 H         -5.5740270268       -4.8223768867        0.1683567474
 H         -6.3831212648       -2.8727799299        1.4515773781
 H         -5.0911910436       -0.7813269969        1.4695093041
 H          2.1200114452        1.5835801373        1.8688152573
 H          3.2670627888        3.7344392251        2.1980993131
  57
  -90.0318358246000       0.131334301618640      !
 C          4.7060615267       -1.6108802133        3.7176843521
 C          3.5060085148       -0.9201035231        3.7637829520
 C          2.8849126706       -0.5192125093        2.5976965867
 C          3.4563834013       -0.8110625405        1.3590258461
 N          2.8288743795       -0.4117076656        0.1737899171
 C          3.5862238249        0.0521475516       -0.9080663110
 C          3.1983839046       -0.2449910231       -2.2128956061
 C          3.9395935161        0.2215332805       -3.2805073820
 C          5.0814322181        0.9753172991       -3.0652226469
 C          5.4754577702        1.2645673068       -1.7693097340
 C          4.7342051245        0.8123380794       -0.6954826473
 C          1.4400535934       -0.4245769329        0.0923035406
 C          0.6805184527       -1.4166000523        0.6824154689
 C         -0.7158671409       -1.4005284950        0.6762882733
 C         -1.4459685991       -0.3895659232        0.0809688400
 N         -2.8338477786       -0.3385632014        0.1444105822
 C         -3.5530064038        0.1801033362       -0.9420855617
 C         -3.1927732814       -0.1611043423       -2.2434675073
 C         -3.8931045815        0.3575793139       -3.3148270800
 C         -4.9637832137        1.2106357691       -3.1044829797
 C         -5.3293796098        1.5454182502       -1.8111417145
 C         -4.6299999091        1.0378652230       -0.7338012449
 C         -3.5042747719       -0.7355271113        1.3050705240
 C         -4.7597582356       -1.3375942799        1.2184067228
 C         -5.4263119601       -1.7262019084        2.3641503671
 C         -4.8548492049       -1.5306342528        3.6107893222
 C         -3.6084241559       -0.9330126857        3.7027886893
 C         -2.9375857041       -0.5337767764        2.5639818198
 C         -0.7081750207        0.6307355990       -0.5693784028
 N         -1.1881693683        1.7073586466       -1.1896884287
 S          0.0413102930        2.6013760145       -1.7139531288
 N          1.2446241300        1.6782452288       -1.1796381747
 C          0.7336301877        0.6135655466       -0.5634895256
 C          4.6644448477       -1.5065646183        1.3181970185
 C          5.2812805649       -1.8981601492        2.4906873203
 H          5.1894449983       -1.9211946279        4.6315008823
 H          3.0534953467       -0.6839136315        4.7157473238
 H          1.9550470852        0.0290078002        2.6371118070
 H          2.3162217864       -0.8456117110       -2.3816829196
 H          3.6291889774       -0.0130397702       -4.2883143261
 H          5.6606232698        1.3353548411       -3.9021836651
 H          6.3618043584        1.8562866021       -1.5926872227
 H          5.0340735960        1.0515677547        0.3142723782
 H          1.1866359632       -2.2308874462        1.1792059749
 H         -1.2448570134       -2.2039704673        1.1666857484
 H         -2.3631537405       -0.8342813088       -2.4056760851
 H         -3.6059942199        0.0887049156       -4.3209438640
 H         -5.5102734875        1.6129983711       -3.9441950203
 H         -6.1605333665        2.2137088672       -1.6396280975
 H         -4.9078150967        1.3061679148        0.2750180303
 H         -5.2041904168       -1.4994853488        0.2474004179
 H         -6.3965707175       -2.1935847617        2.2819944582
 H         -5.3763148828       -1.8401941591        4.5036684089
 H         -3.1578243161       -0.7672398306        4.6704177462
 H         -1.9727000043       -0.0547060660        2.6423786256
 H          5.1111309248       -1.7373951173        0.3622770833
 H          6.2160725171       -2.4373738686        2.4454465653
  57
  -90.0313466880000       7.826841728864024E-002 !
 C          4.8954478585        3.2808179313       -0.0563209003
 C          5.2880046027        2.1955445573       -0.8218086080
 C          4.5994078121        1.0008502880       -0.7420358880
 C          3.5075760335        0.8804356885        0.1127596762
 N          2.8080188248       -0.3372824939        0.1869417100
 C          3.5427393427       -1.5256231493        0.2804485465
 C          3.1277957968       -2.6865022413       -0.3712536667
 C          3.8683533836       -3.8474548524       -0.2614348504
 C          5.0336198223       -3.8703222884        0.4877050461
 C          5.4576131635       -2.7161883106        1.1256490780
 C          4.7205468591       -1.5522825627        1.0275479244
 C          1.4226366195       -0.3378369883        0.1997576690
 C          0.6792845961       -1.3277488955        0.8170257844
 C         -0.7184272166       -1.3343619846        0.8173503157
 C         -1.4651504887       -0.3388356594        0.2222391130
 N         -2.8615833233       -0.3382376551        0.2241438636
 C         -3.5218456549        0.8629674859        0.5050870149
 C         -4.6906085390        1.2174670969       -0.1651625944
 C         -5.3276829669        2.4056593662        0.1343294465
 C         -4.8091201147        3.2593421856        1.0942816714
 C         -3.6420609772        2.9153700147        1.7556966114
 C         -3.0028120701        1.7253799039        1.4694595403
 C         -3.5632848908       -1.5040296295       -0.0796491486
 C         -3.0337944380       -2.4343396497       -0.9751402613
 C         -3.7314409398       -3.5865136488       -1.2784184875
 C         -4.9667925491       -3.8321866844       -0.7017303335
 C         -5.4964318222       -2.9139525373        0.1902365413
 C         -4.8036193965       -1.7617387237        0.5057739280
 C         -0.7491401674        0.6995741168       -0.4189284827
 N         -1.2571069379        1.7300064015       -1.0929089230
 S         -0.0494816171        2.5980871698       -1.7046097803
 N          1.1751014165        1.7168547944       -1.1490019551
 C          0.6913167380        0.6930355326       -0.4466702578
 C          3.1251230474        1.9675877967        0.8933616700
 C          3.8135560739        3.1613990276        0.8001272167
 H          5.4314142922        4.2154166690       -0.1256651111
 H          6.1309621209        2.2817863382       -1.4916225313
 H          4.8968392780        0.1546129940       -1.3440430462
 H          2.2273269578       -2.6696780361       -0.9673379732
 H          3.5365522469       -4.7399806358       -0.7713602675
 H          5.6085559698       -4.7800596182        0.5708495110
 H          6.3653239805       -2.7231730604        1.7109365728
 H          5.0478937284       -0.6550041243        1.5319892388
 H          1.1957024345       -2.1246183730        1.3303667350
 H         -1.2335814749       -2.1454516769        1.3104105376
 H         -5.0896337460        0.5593766152       -0.9227969717
 H         -6.2338926487        2.6707314148       -0.3906287675
 H         -5.3104679078        4.1873512620        1.3246442277
 H         -3.2306389199        3.5747720464        2.5062559791
 H         -2.0978646906        1.4521421880        1.9936133094
 H         -2.0773113686       -2.2400248551       -1.4379838186
 H         -3.3105763162       -4.2942096172       -1.9778360257
 H         -5.5112049893       -4.7320311446       -0.9445036169
 H         -6.4559116873       -3.0996450455        0.6504770243
 H         -5.2169195361       -1.0529631810        1.2079979447
 H          2.2878290333        1.8696431249        1.5692387887
 H          3.5089757589        4.0019788114        1.4061546731
  57
  -90.0312566855000       7.115808741688545E-002 !
 C          4.8294703794        2.3030863420       -2.4809530950
 C          3.6821762230        1.6622030707       -2.9178933411
 C          3.0281272160        0.7655621231       -2.0963354261
 C          3.5101068180        0.5089243219       -0.8144523122
 N          2.8352203697       -0.3940327288        0.0183663574
 C          3.5444695186       -1.2706799930        0.8423214540
 C          4.7651426931       -1.8017469494        0.4247823167
 C          5.4684439302       -2.6601817773        1.2469878742
 C          4.9683372308       -3.0104082886        2.4904581237
 C          3.7546520757       -2.4894082941        2.9083112993
 C          3.0469055390       -1.6251106405        2.0965758291
 C          1.4432180712       -0.3967794431        0.0169381673
 C          0.6997592760       -1.5589738479        0.0868412405
 C         -0.6979040729       -1.5589489793        0.0943865850
 C         -1.4417699406       -0.3973580978        0.0211295374
 N         -2.8338182344       -0.3941099645        0.0255903053
 C         -3.5045398076        0.6046579730        0.7448735682
 C         -4.6601082513        1.1938384180        0.2379950016
 C         -5.3108710155        2.1752622324        0.9595947165
 C         -4.8180266199        2.5878782298        2.1865665964
 C         -3.6672385717        2.0065427967        2.6923016447
 C         -3.0159810566        1.0168664669        1.9829407164
 C         -3.5481097756       -1.3674907625       -0.6762585941
 C         -3.0585470967       -1.8785249001       -1.8785852655
 C         -3.7724191171       -2.8370371481       -2.5704284519
 C         -4.9841012822       -3.2987657367       -2.0829025430
 C         -5.4756121381       -2.7941524947       -0.8900930519
 C         -4.7662243856       -1.8402207486       -0.1871330021
 C         -0.7195219974        0.8191577740       -0.0581763299
 N         -1.2166186026        2.0521717721       -0.1453631253
 S         -0.0002378219        3.1022962181       -0.2018814955
 N          1.2168094498        2.0541536714       -0.1263091909
 C          0.7205700035        0.8196637207       -0.0579378774
 C          4.6626858284        1.1570531414       -0.3775236954
 C          5.3163445417        2.0440497127       -1.2103514982
 H          5.3412833543        3.0000910309       -3.1272902438
 H          3.2996231296        1.8537810632       -3.9098967327
 H          2.1406845743        0.2550461402       -2.4424570613
 H          5.1533270424       -1.5385897122       -0.5480911658
 H          6.4111875163       -3.0655548444        0.9099564253
 H          5.5200238380       -3.6831028838        3.1292455302
 H          3.3592621808       -2.7507352109        3.8789530919
 H          2.1074778901       -1.2105016803        2.4316355880
 H          1.2184417042       -2.5041259375        0.1489345319
 H         -1.2161117714       -2.5046800647        0.1515144647
 H         -5.0375901577        0.8812729703       -0.7244251475
 H         -6.2050372263        2.6278292417        0.5566826151
 H         -5.3276493914        3.3581510337        2.7456164354
 H         -3.2796590551        2.3185343290        3.6512512080
 H         -2.1255062448        0.5538861704        2.3838400169
 H         -2.1208546511       -1.5111838131       -2.2690438460
 H         -3.3835167404       -3.2195437441       -3.5027479077
 H         -5.5409185816       -4.0451174197       -2.6286740238
 H         -6.4166994154       -3.1518834479       -0.4987986316
 H         -5.1481244079       -1.4555890618        0.7470772307
 H          5.0349919495        0.9656466065        0.6181157161
 H          6.2075353909        2.5445223478       -0.8608817952
  57
  -90.0311680352000       6.478633458327503E-002 !
 C          4.8326832740        2.7221560200       -2.0493036166
 C          5.2863733673        1.4146435482       -1.9968658587
 C          4.6324916434        0.4788994049       -1.2194698245
 C          3.5139994629        0.8468274382       -0.4762034832
 N          2.8429874487       -0.1012725359        0.3112413949
 C          3.5782236950       -1.0238941832        1.0613023696
 C          4.7895876805       -0.6467124270        1.6418155230
 C          5.5223894203       -1.5564782770        2.3785109596
 C          5.0609982588       -2.8504920568        2.5560892112
 C          3.8588918905       -3.2305307387        1.9817965210
 C          3.1222400198       -2.3303815698        1.2372310732
 C          1.4534597442       -0.1034119389        0.3408088810
 C          0.7310518098       -0.4360520854        1.4711228327
 C         -0.6657269432       -0.4566895041        1.4958762702
 C         -1.4371932202       -0.1126912322        0.4020280139
 N         -2.8267655625       -0.1205057649        0.4300351034
 C         -3.5230621493        0.2128958475        1.5954678747
 C         -3.0514452106        1.2076550397        2.4520515731
 C         -3.7492999717        1.5255490719        3.6006564589
 C         -4.9273540737        0.8666824708        3.9126227456
 C         -5.4043053041       -0.1169623995        3.0618321377
 C         -4.7103512802       -0.4469338643        1.9142803816
 C         -3.5368167636       -0.4819162522       -0.7250947268
 C         -3.1030603948       -1.5451199335       -1.5133175303
 C         -3.7961895394       -1.8878206280       -2.6574633322
 C         -4.9345587563       -1.1886104219       -3.0222594046
 C         -5.3764493407       -0.1396068677       -2.2331896657
 C         -4.6835342718        0.2170108831       -1.0929746279
 C         -0.7379600726        0.2545776648       -0.7749682890
 N         -1.2594446384        0.6332637580       -1.9412155879
 S         -0.0664201905        0.9186557348       -2.9803074751
 N          1.1713453972        0.5873040785       -2.0094696066
 C          0.7026980063        0.2424337346       -0.8107432779
 C          3.0688024375        2.1658494536       -0.5201666389
 C          3.7222212884        3.0921016232       -1.3088658990
 H          5.3424116976        3.4494639535       -2.6631097195
 H          6.1501138238        1.1181317611       -2.5737581943
 H          4.9773924175       -0.5442872987       -1.1882421810
 H          5.1472504944        0.3642110961        1.5125000567
 H          6.4567887640       -1.2493664177        2.8248398498
 H          5.6338148293       -3.5575860073        3.1365201265
 H          3.4952618463       -4.2399217957        2.1070759622
 H          2.1915356217       -2.6344339500        0.7813088488
 H          1.2656716519       -0.7047408983        2.3699509643
 H         -1.1600939550       -0.7428826420        2.4121321291
 H         -2.1394887823        1.7317013139        2.2066864384
 H         -3.3737978113        2.2998025224        4.2535769331
 H         -5.4697853727        1.1187211931        4.8110865667
 H         -6.3202632801       -0.6385507759        3.2976884484
 H         -5.0796507762       -1.2205828440        1.2572195221
 H         -2.2222382956       -2.0989692805       -1.2216541398
 H         -3.4501610471       -2.7119090125       -3.2642235814
 H         -5.4753568566       -1.4608038914       -3.9161264480
 H         -6.2620055027        0.4119598359       -2.5130332272
 H         -5.0194712374        1.0433397984       -0.4838137779
 H          2.2102862254        2.4573837290        0.0676809323
 H          3.3679656842        4.1121981101       -1.3386285353
  57
  -90.0310726246000       5.856467448474054E-002 !
 C          4.8336004980        3.2600135673        1.0967831202
 C          5.3602239637        2.3905241448        0.1557721902
 C          4.7202230772        1.2024785563       -0.1384775399
 C          3.5400541574        0.8625600993        0.5194643595
 N          2.8697872673       -0.3323570811        0.2410949813
 C          3.5505415031       -1.5027546675       -0.0932463030
 C          2.9907095432       -2.4088578667       -0.9955268538
 C          3.6601273888       -3.5699952215       -1.3262471935
 C          4.8986440379       -3.8484898513       -0.7717091134
 C          5.4596869653       -2.9535163363        0.1246397213
 C          4.7945027287       -1.7927467034        0.4684182038
 C          1.4724582350       -0.3232987669        0.2521280654
 C          0.7274235417       -1.3139178373        0.8572157762
 C         -0.6700667491       -1.3074349922        0.8603294999
 C         -1.4156987686       -0.3245596185        0.2339852037
 N         -2.8008853968       -0.3345552630        0.2146101010
 C         -3.5104124491        0.8749788601        0.1053332077
 C         -4.5907649881        0.9678344750       -0.7674865973
 C         -5.2884816227        2.1542294981       -0.8827415513
 C         -4.9152968862        3.2594891847       -0.1362994204
 C         -3.8449950728        3.1676979975        0.7379938648
 C         -3.1488274181        1.9817419958        0.8680802174
 C         -3.5282032523       -1.5280671761        0.3024593279
 C         -3.0911346444       -2.6936923311       -0.3256351253
 C         -3.8288788428       -3.8571626888       -0.2230590787
 C         -5.0142453580       -3.8780969653        0.4935440412
 C         -5.4600805097       -2.7195461448        1.1081733758
 C         -4.7249958271       -1.5538757289        1.0192102934
 C         -0.6857596765        0.7057482582       -0.4154442798
 N         -1.1700400927        1.7282531545       -1.1196665584
 S          0.0531254409        2.6102861637       -1.6759881177
 N          1.2615897261        1.7434954122       -1.0649902120
 C          0.7548815746        0.7136920177       -0.3889476799
 C          3.0160462632        1.7390475530        1.4690399281
 C          3.6568583457        2.9295956288        1.7479066935
 H          5.3355366491        4.1893781490        1.3200728255
 H          6.2734301719        2.6450340233       -0.3621967795
 H          5.1242349248        0.5364443646       -0.8864072290
 H          2.0320501697       -2.1887559425       -1.4420097807
 H          3.2155997125       -4.2573718176       -2.0312140825
 H          5.4217869338       -4.7546988476       -1.0366317587
 H          6.4223162447       -3.1647812396        0.5668597628
 H          5.2309277368       -1.1049866178        1.1775865062
 H          1.2442104981       -2.1227533423        1.3523436428
 H         -1.1846145294       -2.1008039660        1.3808267852
 H         -4.8711162086        0.1071684463       -1.3571255417
 H         -6.1207739252        2.2189375844       -1.5681160722
 H         -5.4568531925        4.1882031005       -0.2350557590
 H         -3.5558273436        4.0239596771        1.3295528136
 H         -2.3221951527        1.9054471142        1.5596319547
 H         -2.1765539228       -2.6796952549       -0.8997823612
 H         -3.4787457270       -4.7530426364       -0.7144388646
 H         -5.5871776118       -4.7895454074        0.5704233011
 H         -6.3830466817       -2.7247287887        1.6690895294
 H         -5.0696433624       -0.6536590056        1.5064638968
 H          2.1061080479        1.4755404041        1.9893187073
 H          3.2392980796        3.5996835335        2.4854890434
  57
  -90.0309977603000       5.410413818021729E-002 !
 C          4.9116806586        2.5978343063       -2.0553725443
 C          5.2942749876        1.2670232150       -2.0311666627
 C          4.6103436154        0.3596282575       -1.2458897303
 C          3.5323008818        0.7794329792       -0.4719051323
 N          2.8352822825       -0.1519199670        0.3179165540
 C          3.5728338937       -1.0493896882        1.0982131250
 C          3.1602926548       -2.3704224409        1.2694946848
 C          3.9035192677       -3.2348977513        2.0495447961
 C          5.0685785573       -2.8040243189        2.6630121764
 C          5.4901972694       -1.4966241644        2.4849742036
 C          4.7511631219       -0.6230882622        1.7117424096
 C          1.4483243472       -0.1489739033        0.3320097475
 C          0.7092607534       -0.5719419133        1.4213621161
 C         -0.6873753791       -0.5907319432        1.4278878571
 C         -1.4485838621       -0.1381019501        0.3665095621
 N         -2.8373570479       -0.1356655741        0.3856882203
 C         -3.5422003849        0.0000874044        1.5866941369
 C         -3.0946283794        0.8559092254        2.5929218277
 C         -3.8001285002        0.9687821315        3.7749803056
 C         -4.9630279072        0.2420441491        3.9721546721
 C         -5.4191950809       -0.5997106453        2.9710559898
 C         -4.7170414026       -0.7249324260        1.7884749122
 C         -3.5555360816       -0.3016444703       -0.8094896113
 C         -3.1578022126       -1.2460879884       -1.7523729188
 C         -3.8631757117       -1.3866407839       -2.9314629619
 C         -4.9788755600       -0.6039784600       -3.1782792115
 C         -5.3873727100        0.3239780064       -2.2347266352
 C         -4.6812235270        0.4794233391       -1.0580604359
 C         -0.7331107385        0.3325558095       -0.7631586948
 N         -1.2391736034        0.8259065402       -1.8929882245
 S         -0.0352042100        1.1800620990       -2.8972867463
 N          1.1895957730        0.7400955778       -1.9539493915
 C          0.7085637368        0.2993328282       -0.7919186630
 C          3.1610555407        2.1210019761       -0.4840050484
 C          3.8454800766        3.0200273359       -1.2785104508
 H          5.4429441623        3.3034038262       -2.6763621310
 H          6.1247405039        0.9310877791       -2.6347242387
 H          4.8996256045       -0.6811474911       -1.2304749993
 H          2.2593936771       -2.7138599182        0.7828614056
 H          3.5734952056       -4.2558105064        2.1739858255
 H          5.6449117734       -3.4829104850        3.2729702044
 H          6.3977224932       -1.1512911792        2.9579973640
 H          5.0774729275        0.3979953079        1.5786177649
 H          1.2286102475       -0.9135160664        2.3039322202
 H         -1.1891974751       -0.9647383834        2.3075913896
 H         -2.1953617577        1.4337645932        2.4384279016
 H         -3.4425245777        1.6356234700        4.5458376560
 H         -5.5104719222        0.3327925578        4.8979928872
 H         -6.3244729971       -1.1710104996        3.1150493762
 H         -5.0691626922       -1.3890421241        1.0128089698
 H         -2.2956924292       -1.8664732984       -1.5540153889
 H         -3.5454077230       -2.1190116782       -3.6593195526
 H         -5.5284211673       -0.7179395337       -4.1005933346
 H         -6.2556386914        0.9390769129       -2.4207093102
 H         -4.9899883230        1.2119113951       -0.3264447492
 H          2.3347673261        2.4502584392        0.1295027096
 H          3.5488841239        4.0586980200       -1.2871361410
  57
  -90.0308630965000       4.691841000040971E-002 !
 C          4.8773634831        3.2775865225       -0.1754670259
 C          5.2731215001        2.1671975532       -0.9023396395
 C          4.5894202141        0.9733240444       -0.7785817104
 C          3.4996382726        0.8793341512        0.0819745388
 N          2.8026021778       -0.3372185825        0.1977533557
 C          3.5423685601       -1.5187783141        0.3323872513
 C          3.1360162732       -2.7027452894       -0.2819068923
 C          3.8817418750       -3.8556049380       -0.1300975380
 C          5.0442660898       -3.8473466101        0.6235225095
 C          5.4605152487       -2.6701611339        1.2231948761
 C          4.7178120553       -1.5141525466        1.0836661094
 C          1.4177705197       -0.3413005329        0.2029327955
 C          0.6733223660       -1.3203306396        0.8365931493
 C         -0.7245761569       -1.3271688292        0.8343228959
 C         -1.4692103306       -0.3396957405        0.2248123662
 N         -2.8678732436       -0.3344534953        0.2348195955
 C         -3.5181873507        0.8578863801        0.5634948105
 C         -4.7140754758        1.2253656708       -0.0503214248
 C         -5.3398796289        2.4051750378        0.3013537630
 C         -4.7832696994        3.2404846749        1.2561649162
 C         -3.5880776413        2.8859866097        1.8590609012
 C         -2.9603443883        1.7033509054        1.5220476083
 C         -3.5670650679       -1.4867911985       -0.1205200072
 C         -3.0329271318       -2.3715853319       -1.0584445433
 C         -3.7255735760       -3.5106855494       -1.4172984033
 C         -4.9600748898       -3.7886579923       -0.8537765710
 C         -5.4922896267       -2.9180490676        0.0833406352
 C         -4.8044557072       -1.7795062690        0.4544841653
 C         -0.7532709619        0.6852377276       -0.4363743704
 N         -1.2616017280        1.7023473338       -1.1300060498
 S         -0.0540136674        2.5550106558       -1.7630017902
 N          1.1704025239        1.6834562887       -1.1922515085
 C          0.6869624045        0.6756773553       -0.4667739079
 C          3.1159000756        1.9912668996        0.8262386290
 C          3.7988611411        3.1839805903        0.6885661166
 H          5.4081307351        4.2118056564       -0.2807751131
 H          6.1134765220        2.2331610665       -1.5776970459
 H          4.8883101342        0.1077035424       -1.3516216418
 H          2.2387773176       -2.7105864230       -0.8829705044
 H          3.5564204639       -4.7662536467       -0.6114274525
 H          5.6227850645       -4.7510220811        0.7401200527
 H          6.3654456895       -2.6530359344        1.8124929228
 H          5.0377691094       -0.5993628593        1.5607960384
 H          1.1885032059       -2.1065432919        1.3671918092
 H         -1.2414124450       -2.1300486275        1.3390076780
 H         -5.1425156334        0.5857747737       -0.8075857955
 H         -6.2664560047        2.6798743637       -0.1812675200
 H         -5.2755229320        4.1626057537        1.5261838531
 H         -3.1455143985        3.5305505350        2.6048108438
 H         -2.0360751791        1.4205148083        2.0057538312
 H         -2.0772234315       -2.1508041467       -1.5110402783
 H         -3.3023838098       -4.1812680948       -2.1510391690
 H         -5.5018988761       -4.6768452358       -1.1415337384
 H         -6.4503165994       -3.1306463734        0.5348639538
 H         -5.2192050907       -1.1091394622        1.1927094516
 H          2.2813208697        1.9138738233        1.5081224471
 H          3.4922542575        4.0443927856        1.2651745848
