  57
        -90.40754589
 C          4.8396040928        3.3212449727        0.5212908647
 C          5.3131202569        2.3408470172       -0.3349151077
 C          4.6561799267        1.1308918220       -0.4442696141
 C          3.5139535542        0.8852719768        0.3134771834
 N          2.8363114886       -0.3378253153        0.2069161651
 C          3.5535049991       -1.5318718475        0.0961972621
 C          3.0768743329       -2.5808459308       -0.6903407581
 C          3.7944324702       -3.7561893940       -0.7932593381
 C          4.9976610476       -3.9061217809       -0.1230868308
 C          5.4785184195       -2.8659406706        0.6551665672
 C          4.7650897585       -1.6889337165        0.7700534876
 C          1.4455594929       -0.3401354734        0.2101714914
 C          0.7007164554       -1.3387398936        0.8072095699
 C         -0.6969214543       -1.3388990017        0.8077981765
 C         -1.4424411756       -0.3402761052        0.2114306121
 N         -2.8327750154       -0.3379499862        0.2096861349
 C         -3.5114231276        0.8856310408        0.3070258014
 C         -4.6504696661        1.1258280726       -0.4570386707
 C         -5.3095841933        2.3353640649       -0.3565755437
 C         -4.8407981436        3.3207127118        0.4965078703
 C         -3.7085707345        3.0848915547        1.2582260705
 C         -3.0495404288        1.8744551773        1.1726590787
 C         -3.5521467081       -1.5314837583        0.1059944295
 C         -3.0811252616       -2.5846048867       -0.6782177799
 C         -3.8039210424       -3.7571761518       -0.7763076830
 C         -5.0063887934       -3.9001318934       -0.1034308211
 C         -5.4810001906       -2.8562005190        0.6736685392
 C         -4.7623892310       -1.6819698269        0.7836886540
 C         -0.7188983970        0.6986245705       -0.4260267480
 N         -1.2152186017        1.7304201639       -1.1071584216
 S          0.0008241984        2.6095787681       -1.6845473272
 N          1.2175334419        1.7305775259       -1.1078054016
 C          0.7215776261        0.6987691428       -0.4264728050
 C          3.0469943517        1.8694337875        1.1818925863
 C          3.7041003511        3.0802131013        1.2766292075
 H          5.3530030432        4.2676809753        0.6001638614
 H          6.1967895660        2.5227758438       -0.9290472853
 H          5.0177780135        0.3711372067       -1.1215297610
 H          2.1459062468       -2.4632571267       -1.2251517409
 H          3.4147881220       -4.5585796696       -1.4087445877
 H          5.5564446041       -4.8256623206       -0.2080259428
 H          6.4143052831       -2.9739089979        1.1835644653
 H          5.1384006772       -0.8830547252        1.3846493776
 H          1.2171784039       -2.1476197863        1.3021231478
 H         -1.2127276285       -2.1477746561        1.3033716156
 H         -5.0075560648        0.3622522904       -1.1323493479
 H         -6.1895640811        2.5138938346       -0.9569894404
 H         -5.3546545518        4.2674719139        0.5670151816
 H         -3.3415794310        3.8457835891        1.9314217559
 H         -2.1733013414        1.6855385062        1.7762987397
 H         -2.1512650180       -2.4720258770       -1.2160325012
 H         -3.4286578811       -4.5632061322       -1.3896296630
 H         -5.5681712547       -4.8183309504       -0.1831142629
 H         -6.4145227941       -2.9600576011        1.2070936315
 H         -5.1304543470       -0.8729562630        1.3973919146
 H          2.1689807353        1.6761290878        1.7815093792
 H          3.3334766070        3.8369354629        1.9526537199
