  164
       -239.99105557
 C         -5.6274089798       -5.3996483781        2.5967967414
 C         -6.3905176608       -4.9389014245        1.3912044843
 C         -7.0692759156       -5.8613016105        0.6007905019
 C         -7.7894924483       -5.4355420677       -0.5008329072
 C         -7.8356783640       -4.0972601147       -0.8384173744
 C         -7.1608773404       -3.1583003837       -0.0577476763
 N         -7.1765351747       -1.8068696579       -0.3961472508
 C         -8.2779070155       -1.2399186018       -1.0458079087
 C         -9.5792953377       -1.5693664580       -0.6672222752
 C        -10.6505002413       -0.9839180762       -1.3115924224
 C        -10.4474721365       -0.0713423808       -2.3338289239
 C         -9.1569884090        0.2651193006       -2.7261312095
 C         -8.9171475208        1.2114349827       -3.8646410627
 C         -8.0836410431       -0.3196840928       -2.0747771464
 C         -6.0603110739       -0.9989005091       -0.1405473500
 C         -6.2494604719        0.3224629042        0.2662709324
 C         -5.1552592469        1.1645014918        0.4494999703
 C         -3.8364168740        0.6787423866        0.3120240147
 C         -3.6758142171       -0.6809760259       -0.0347388126
 C         -4.7720818314       -1.4974383931       -0.3018127648
 N         -2.3995228214       -1.2077892055       -0.1271801269
 C         -2.2794687493       -2.6149323554       -0.3078326103
 C         -1.9491054107       -3.1406394969       -1.5519344392
 C         -1.8049295018       -4.5067103451       -1.7056091157
 C         -1.9939684239       -5.3533063017       -0.6253416002
 C         -2.3344134036       -4.8308044326        0.6110087934
 C         -2.4776628046       -3.4651787503        0.7728667122
 C         -1.2466727296       -0.4615411687       -0.0467611105
 C         -0.0230701418       -1.1171781174       -0.1604047856
 C          1.1827790590       -0.4218929080       -0.2005532591
 C          1.1856134058        1.0008827504       -0.1628741154
 C         -0.0533447871        1.6076268787        0.0690486734
 C         -1.2789411777        0.9427777314        0.1837760837
 B         -2.6384864806        1.5798061793        0.5321203698
 C         -2.9792448884        2.9861586641        1.0585684141
 C         -2.0501303133        3.9321610196        1.5190927443
 C         -2.4059104252        5.2069834110        1.8959542144
 C         -3.7363291341        5.6185978049        1.8207423825
 C         -4.1177193869        7.0252926136        2.1686193507
 C         -4.6884488090        4.6954720443        1.4291247889
 C         -4.3414937436        3.3819622101        1.0948173507
 N         -5.3575336188        2.4884483460        0.7906838180
 C         -6.7064307487        2.9153817141        0.9476970979
 C         -7.2385064345        3.0748755470        2.2217991166
 C         -8.5592073556        3.4571918015        2.3649857541
 C         -9.3499887587        3.6680300840        1.2487977989
 C         -8.8308326211        3.5079904462       -0.0304753798
 C         -9.6975780284        3.6974077563       -1.2362715735
 C         -7.5008770940        3.1363113584       -0.1694901386
 B          2.5407371704        1.7208716063       -0.2977219671
 C          2.8694611879        3.2126772666       -0.4942185307
 C          1.9440351226        4.2106021468       -0.8358401432
 C          2.2934817378        5.5333043668       -0.9861299112
 C          3.6182104434        5.9359346236       -0.8211799458
 C          4.0002299878        7.3763078258       -0.9787518028
 C          4.5669385478        4.9731501419       -0.5297583780
 C          4.2200174089        3.6272919021       -0.3711428291
 N          5.2325880582        2.7125450488       -0.1242008308
 C          6.5486495595        3.2070151142        0.1001065306
 C          6.8771704495        3.7470387418        1.3369969321
 C          8.1630025746        4.2050851800        1.5588144137
 C          9.1179633160        4.1172264712        0.5609016089
 C          8.8016294461        3.5775965912       -0.6801951892
 C          9.8396565057        3.4489845371       -1.7514476820
 C          7.5067121498        3.1301198766       -0.9021959851
 C          5.0582697965        1.3422454878       -0.1252671855
 C          6.1605080272        0.5014709360        0.0122126579
 C          6.0032285290       -0.8819433153       -0.0767558566
 N          7.1273759085       -1.7146947481       -0.0196629914
 C          7.0405641374       -2.9663022335        0.5921252254
 C          7.7482062320       -4.0565005938        0.0853417627
 C          7.6294610848       -5.2942856781        0.6857352413
 C          6.8041553314       -5.4707444444        1.7822686589
 C          6.0927985278       -4.3944587621        2.3024149391
 C          5.2207562404       -4.5762247716        3.5085293093
 C          6.2240960871       -3.1514638312        1.7088595668
 C          8.3200591056       -1.2967639921       -0.6172999907
 C          8.3007999532       -0.5864670254       -1.8181016758
 C          9.4854560164       -0.1711363525       -2.3911530163
 C         10.6988655910       -0.4545021171       -1.7867295570
 C         10.7367703982       -1.1634249937       -0.5910834112
 C         12.0442875897       -1.4513157887        0.0836139003
 C          9.5463129871       -1.5750974652       -0.0151951935
 C          4.7314651214       -1.4259305738       -0.2274087332
 C          3.6163276069       -0.5915137084       -0.2315571477
 C          3.7523016031        0.8139909034       -0.2215646652
 N          2.3503704978       -1.1462395401       -0.2789419683
 C          2.2502492349       -2.5679770490       -0.2993201863
 C          2.3640587641       -3.2889795035        0.8825571292
 C          2.2437356216       -4.6663133905        0.8635293587
 C          2.0049961997       -5.3266385483       -0.3299433415
 C          1.8953845330       -4.6084072654       -1.5088061739
 C          2.0210748618       -3.2310261099       -1.4980815852
 C         -6.4484973499       -3.5973336521        1.0602722401
 H         -4.9719425767       -6.2295461028        2.3370954894
 H         -5.0280145449       -4.5927863885        3.0107941583
 H         -6.3154467792       -5.7488615879        3.3670605071
 H         -7.0316005019       -6.9111588411        0.8517801801
 H         -8.3123098298       -6.1560598678       -1.1130889143
 H         -8.3837593087       -3.7726572403       -1.7103426762
 H         -9.7381046284       -2.2771309135        0.1327381871
 H        -11.6567334952       -1.2365570959       -1.0102235933
 H        -11.2949614787        0.3765962719       -2.8326871840
 H         -9.7894556651        1.8340735412       -4.0484544425
 H         -8.7061493298        0.6484879082       -4.7745549831
 H         -8.0597651667        1.8499837667       -3.6635131942
 H         -7.0749273527       -0.0703367605       -2.3717219657
 H         -7.2584565721        0.6712727051        0.4170190514
 H         -4.6400692549       -2.5162420049       -0.6324288183
 H         -1.7986993380       -2.4702723648       -2.3851853812
 H         -1.5448626254       -4.9125215779       -2.6718559423
 H         -1.8769980068       -6.4193909221       -0.7482321286
 H         -2.4818645288       -5.4879550743        1.4546075647
 H         -2.7359252011       -3.0451409650        1.7335326468
 H         -0.0095399309       -2.1930076220       -0.2160391176
 H         -0.0637879026        2.6772449244        0.1723691284
 H         -1.0151434193        3.6415475852        1.5986253311
 H         -1.6521302315        5.9022906779        2.2383813308
 H         -5.1973592532        7.1548013065        2.1448926356
 H         -3.7561025831        7.2838246178        3.1634974107
 H         -3.6695855346        7.7242891259        1.4619609222
 H         -5.7224381896        5.0056045508        1.3865919776
 H         -6.6126367910        2.9009647448        3.0841737843
 H         -8.9764213087        3.5845523187        3.3528860809
 H        -10.3833900012        3.9581912214        1.3703912324
 H        -10.1497625276        2.7435224597       -1.5093904153
 H         -9.1145057895        4.0501785687       -2.0834165805
 H        -10.4962079837        4.4072271064       -1.0338926006
 H         -7.0732217152        3.0034007797       -1.1526689538
 H          0.9181878058        3.9263721281       -1.0062418266
 H          1.5417528798        6.2681225774       -1.2387810644
 H          3.7008692009        7.7454207753       -1.9594225921
 H          3.4962983981        7.9855106970       -0.2282330554
 H          5.0739818004        7.5097638301       -0.8689450084
 H          5.6005805455        5.2751735627       -0.4421430590
 H          6.1236967103        3.8065047132        2.1078095573
 H          8.4232283005        4.6285183195        2.5176102004
 H         10.1215243029        4.4716058697        0.7463187400
 H         10.2786222002        2.4512047656       -1.7143241838
 H          9.3987880636        3.5851717716       -2.7362651444
 H         10.6347229284        4.1778419146       -1.6140125545
 H          7.2353206327        2.7080361134       -1.8590135052
 H          7.1508484037        0.8968232285        0.1704392742
 H          8.3784686688       -3.9274122999       -0.7819620968
 H          8.1775744463       -6.1344368196        0.2844490990
 H          6.7103455943       -6.4453069322        2.2384051010
 H          4.6746917453       -5.5155825290        3.4490485567
 H          4.5108935859       -3.7584314667        3.6030995609
 H          5.8318992097       -4.6030221535        4.4112769517
 H          5.6878411757       -2.3043409878        2.1119858793
 H          7.3559965285       -0.3755184060       -2.2960758453
 H          9.4641504806        0.3677969361       -3.3275562213
 H         11.6214695201       -0.1298576525       -2.2460969011
 H         12.3202450109       -0.6185899272        0.7317632794
 H         12.8373398006       -1.5833297033       -0.6491310811
 H         11.9756241427       -2.3468653513        0.6966572057
 H          9.5609839527       -2.1203132965        0.9179434655
 H          4.6267758012       -2.4952468689       -0.3257258113
 H          2.5412653682       -2.7606993421        1.8074046267
 H          2.3319450007       -5.2244081992        1.7832894981
 H          1.9051681927       -6.4014824108       -0.3418117900
 H          1.7117828947       -5.1223498631       -2.4404671616
 H          1.9330723736       -2.6590144508       -2.4098101180
 H         -5.9381006865       -2.8697750664        1.6748727390
