  107
       -133.60617462
 C         -3.4310639949        3.3429202354        1.6140356080
 C         -3.5425078808        3.1802454575        0.0904129079
 C         -3.9687720602        4.5178781184       -0.5280820887
 C         -4.6447240311        2.1565480049       -0.2006633923
 C         -2.1789821395        2.7447421096       -0.4269649877
 C         -1.1998782652        3.6293522418       -0.6405425380
 C          0.1246417473        3.2038406497       -1.0226489455
 C          0.4287505491        1.9169426428       -1.1834415296
 C         -0.5798361325        0.7882050373       -1.1140123719
 C         -0.8054190146        0.4746568554       -2.6802617109
 C         -1.7369497026       -0.6880834551       -3.0601897357
 C          0.4987765719        0.3043907011       -3.4819401926
 C         -1.4820440342        1.7147089229       -3.3127193332
 C          0.1507997932       -0.2302139254       -0.0118775876
 C         -0.7755549159       -1.1443989479        0.9889640268
 C          0.0263820855       -2.2879542116        1.7921908560
 C          0.4754730430       -3.5455879545        1.0260401239
 C          1.2930448226       -1.7698031519        2.4859142975
 C         -0.9226629285       -2.8154415524        2.8917111315
 C         -1.3391292019       -0.3341107811        2.1354337717
 C         -2.6288254385       -0.2554910230        2.4716554295
 C         -3.6662059178       -0.9307676048        1.7348672010
 C         -3.3481576568       -1.7020007158        0.6918485829
 C         -4.4239667063       -2.4803077658       -0.0545215274
 C         -3.8755847931       -3.4018968268       -1.1477529955
 C         -5.3892212424       -1.4857644700       -0.7135747534
 C         -5.2014960059       -3.3521756113        0.9418399568
 C         -1.9348789573       -1.7969155232        0.1875151589
 C          1.1115945517       -1.1355785777       -0.7675172233
 C          0.6489684805       -2.2014064887       -1.5340203166
 C          1.4670772382       -2.9758340293       -2.3383841599
 C          2.8181297326       -2.6883263835       -2.4097473428
 C          3.3267820942       -1.6830514678       -1.6169420476
 C          2.5029510078       -0.9337091001       -0.7674138803
 N          3.0947835314       -0.0145141094        0.0727540470
 C          4.5065523555        0.1058832451        0.0918125504
 C          5.1193722735        1.2047172747       -0.4996759349
 C          6.4970908506        1.3239423126       -0.4773292381
 C          7.2703275344        0.3482887486        0.1303562972
 C          6.6624348839       -0.7480453153        0.7199369025
 C          5.2850508897       -0.8703312209        0.7041263184
 C          2.3399610369        0.7779055612        0.9181070281
 C          3.0125521989        1.6067479022        1.8219734901
 C          2.3281034922        2.5013064344        2.6134296750
 C          0.9548624823        2.5969568295        2.4748157341
 C          0.2900031431        1.7428859222        1.6158024474
 C          0.9390552522        0.7670366139        0.8583730952
 C         -1.9459292276        1.2637056362       -0.5585777734
 H         -2.6459630887        4.0522847127        1.8603227952
 H         -3.1955061091        2.3871247080        2.0691925866
 H         -4.3703556464        3.7052810756        2.0270204702
 H         -3.9162329652        4.4690737006       -1.6130839876
 H         -4.9922816841        4.7497643100       -0.2417682523
 H         -3.3369594498        5.3308234677       -0.1868434545
 H         -4.7507907579        1.9994533442       -1.2709777524
 H         -4.4347780524        1.2132563935        0.2871963343
 H         -5.5944082606        2.5319613593        0.1758534076
 H         -1.3517293822        4.6901123731       -0.5191456438
 H          0.8837221145        3.9697026770       -1.1372616555
 H          1.4302163666        1.6338285706       -1.4615468616
 H         -2.6805866660       -0.6500959402       -2.5252275492
 H         -1.2656917017       -1.6514100008       -2.9307007959
 H         -1.9775836498       -0.5950587556       -4.1193598681
 H          1.1734141074       -0.4203032242       -3.0539652569
 H          1.0138838990        1.2551924562       -3.5742606078
 H          0.2493861700       -0.0275975086       -4.4890275258
 H         -2.5126731711        1.8267397347       -3.0003622609
 H         -1.4759936877        1.5984545610       -4.3954972967
 H         -0.9494971170        2.6232241657       -3.0707915770
 H          0.8630335885       -4.2560262753        1.7552725379
 H          1.2700110371       -3.3422117390        0.3242097788
 H         -0.3370127917       -4.0432462549        0.5076577478
 H          1.6195696514       -2.5083020531        3.2188181232
 H          2.0962487363       -1.6394928351        1.7721631249
 H          1.1361721357       -0.8347553031        3.0087874823
 H         -1.0255575705       -2.1039060184        3.7024701952
 H         -0.5238592440       -3.7365208906        3.3132386769
 H         -1.9061801844       -3.0223888555        2.4884352309
 H         -0.6245913301        0.1097713569        2.8049465823
 H         -2.9236460601        0.2955092607        3.3584723269
 H         -4.6792471254       -0.8290722334        2.0931992366
 H         -3.2478855996       -4.1806743625       -0.7245494902
 H         -3.3115095076       -2.8435275700       -1.8840691469
 H         -4.7071747159       -3.8870844186       -1.6542926358
 H         -6.1890316269       -2.0159249100       -1.2253944122
 H         -5.8295733356       -0.8319193975        0.0304215001
 H         -4.8601868239       -0.8768470224       -1.4398519894
 H         -5.9605342933       -3.9318653648        0.4216347846
 H         -5.6930812384       -2.7440506247        1.6933200252
 H         -4.5277849447       -4.0413902761        1.4461049153
 H         -1.7273565331       -2.8553725564        0.0605307983
 H         -1.9489260364       -1.3483971104       -0.7981939110
 H         -0.3822276013       -2.4768909853       -1.4846605898
 H          1.0491188289       -3.7917129548       -2.9111729202
 H          3.4738072953       -3.2503032431       -3.0586382313
 H          4.3821033682       -1.4713292028       -1.6497121184
 H          4.5075834864        1.9622132591       -0.9660859025
 H          6.9690901688        2.1790345602       -0.9375521043
 H          8.3452739102        0.4425556130        0.1453555476
 H          7.2628096976       -1.5082992714        1.1967793024
 H          4.8034091548       -1.7219053042        1.1608926142
 H          4.0854131329        1.5493622954        1.8955824459
 H          2.8637304094        3.1316140404        3.3084603127
 H          0.3984017375        3.3327325546        3.0382221003
 H         -0.7668153010        1.8899067725        1.5185955441
 H         -2.1155189399        0.8344300744        0.4232798820
 H         -2.7385898433        0.8603018824       -1.1838433424
  107
       -133.60562723
 C         -3.5453171440        3.3607028149        1.4877798970
 C         -3.5940374115        3.1560092319       -0.0338733596
 C         -4.0380150475        4.4611759575       -0.7064933790
 C         -4.6527767266        2.0891210036       -0.3366294465
 C         -2.1970244580        2.7563947930       -0.4868755476
 C         -1.2254913175        3.6605668065       -0.6437390706
 C          0.1217306399        3.2590744923       -0.9699559920
 C          0.4551413746        1.9791980844       -1.1314605288
 C         -0.5352475070        0.8322830863       -1.1206259191
 C         -0.6856330544        0.5425893174       -2.6997782419
 C         -1.5877610667       -0.6212766438       -3.1368280430
 C          0.6548154056        0.3895636296       -3.4423843447
 C         -1.3440114307        1.7856885404       -3.3443401620
 C          0.1556950767       -0.2117956137       -0.0134988746
 C         -0.8070126689       -1.1107506324        0.9753124537
 C         -0.0446472458       -2.2814379702        1.7791130147
 C          0.3374116486       -3.5650121638        1.0199251976
 C          1.2505674951       -1.8112287001        2.4534567981
 C         -0.9985102822       -2.7644399355        2.8948792281
 C         -1.3404773932       -0.2809937315        2.1211425830
 C         -2.6252892993       -0.1530583374        2.4575436205
 C         -3.6843702601       -0.8295318257        1.7516935181
 C         -3.3943456699       -1.6252927296        0.7196590924
 C         -4.4363953469       -2.5123877971        0.0576863151
 C         -4.2983110557       -2.5219652786       -1.4680056750
 C         -5.8639047301       -2.0639543997        0.3872363128
 C         -4.2497098884       -3.9443001878        0.5839227237
 C         -1.9916372347       -1.7198610864        0.1718773057
 C          1.1035769430       -1.1376097181       -0.7570774440
 C          0.6201828261       -2.1917696896       -1.5253573839
 C          1.4253300306       -2.9837738741       -2.3260153844
 C          2.7839999483       -2.7312724461       -2.3820502071
 C          3.3121191184       -1.7414983118       -1.5818494238
 C          2.4992871843       -0.9689569840       -0.7430027289
 N          3.1013749087       -0.0603721718        0.1010931124
 C          4.5128586243        0.0663772458        0.1031523777
 C          5.1107735269        1.1650342724       -0.5031836721
 C          6.4877990241        1.2935708191       -0.4984053117
 C          7.2746730855        0.3279670160        0.1072290806
 C          6.6814129725       -0.7680930194        0.7121550894
 C          5.3049331311       -0.8999660307        0.7134897445
 C          2.3547958000        0.7429173191        0.9435811428
 C          3.0347182110        1.5563398127        1.8563479582
 C          2.3597391332        2.4656011773        2.6391253436
 C          0.9906675661        2.5940604228        2.4823213185
 C          0.3174674799        1.7546047198        1.6156290892
 C          0.9552819935        0.7610656100        0.8711632315
 C         -1.9270111872        1.2822983313       -0.6120492636
 H         -3.2884781831        2.4259782042        1.9741107799
 H         -4.5122526793        3.6947637141        1.8584943615
 H         -2.7978278426        4.1062201092        1.7439500668
 H         -3.9547810580        4.3784942787       -1.7875539544
 H         -5.0743453663        4.6759460782       -0.4550389300
 H         -3.4352370543        5.3004535123       -0.3770931644
 H         -4.7223700961        1.9077763347       -1.4065885060
 H         -4.4291352361        1.1619852051        0.1774578540
 H         -5.6244709540        2.4416434355        0.0045082857
 H         -1.4016169812        4.7176931443       -0.5207820018
 H          0.8722918793        4.0379626402       -1.0446662330
 H          1.4722489360        1.7195593524       -1.3728951198
 H         -2.5462741379       -0.6099945759       -2.6323697106
 H         -1.1089741546       -1.5800765668       -3.0106110081
 H         -1.7943967648       -0.5085331012       -4.2008562403
 H          1.3055284151       -0.3489839833       -3.0005124355
 H          1.1774850347        1.3396791068       -3.4891476036
 H          0.4515870447        0.0817506002       -4.4673881147
 H         -2.3847803440        1.8897392090       -3.0646405070
 H         -1.3012141132        1.6787500141       -4.4272266543
 H         -0.8244126809        2.6950327911       -3.0781311083
 H          0.7331241726       -4.2728935994        1.7472211763
 H          1.1073872516       -3.3995254766        0.2818333520
 H         -0.5120146768       -4.0477691921        0.5481036091
 H          1.5542418882       -2.5558913915        3.1899006676
 H          2.0505368012       -1.7214305068        1.7298130104
 H          1.1372451604       -0.8661140288        2.9695620526
 H         -1.0728896700       -2.0409926354        3.6982518347
 H         -0.6220227402       -3.6915667830        3.3237779598
 H         -1.9901917896       -2.9494309876        2.5017228903
 H         -0.6095597577        0.1393607228        2.7880220865
 H         -2.8991737805        0.4167158802        3.3390358258
 H         -4.6810565311       -0.7219906513        2.1451486039
 H         -3.3259843429       -2.8848862761       -1.7758155825
 H         -4.4521123104       -1.5209534398       -1.8591719468
 H         -5.0548834588       -3.1727852310       -1.9004275103
 H         -6.5741951611       -2.6601460336       -0.1805710403
 H         -6.0838283293       -2.1993950989        1.4413031338
 H         -6.0047217706       -1.0195579063        0.1251567124
 H         -5.0156547689       -4.5971467029        0.1722973228
 H         -4.3294564903       -3.9605471522        1.6680410625
 H         -3.2788945903       -4.3396728992        0.3024007078
 H         -1.8028469702       -2.7756762960       -0.0030077641
 H         -2.0168876443       -1.2354987198       -0.7976925882
 H         -0.4188493161       -2.4385187366       -1.4774675578
 H          0.9927871138       -3.7878186275       -2.9048836996
 H          3.4310349344       -3.3097680378       -3.0250650486
 H          4.3733454789       -1.5595310834       -1.6026799994
 H          4.4888491841        1.9151460274       -0.9679471213
 H          6.9482675681        2.1485118436       -0.9703771761
 H          8.3490281902        0.4295604936        0.1087697419
 H          7.2930800944       -1.5210738333        1.1867421229
 H          4.8337111015       -1.7505833588        1.1824010115
 H          4.1053415456        1.4758129708        1.9415945914
 H          2.9002474256        3.0843155428        3.3407283749
 H          0.4452601066        3.3453310433        3.0357645161
 H         -0.7350912614        1.9244366949        1.4987604809
 H         -2.1184284774        0.8580037509        0.3679829269
 H         -2.6905384566        0.8639855562       -1.2633177743
  107
       -133.60387112
 C         -4.1728293403        2.4452835686        0.9972865360
 C         -3.6063724825        3.2359721398       -0.1883131863
 C         -3.7097070606        4.7264338306        0.1512431127
 C         -4.4871238921        2.9751896240       -1.4205316895
 C         -2.1743843465        2.8159446367       -0.4850312553
 C         -1.1804671191        3.6933928040       -0.6495009962
 C          0.1612199418        3.2558165845       -0.9548381109
 C          0.4628062489        1.9691431926       -1.1192768156
 C         -0.5517319633        0.8440764261       -1.0902195481
 C         -0.7312719170        0.5473246661       -2.6643234435
 C         -1.6622999774       -0.6019090976       -3.0791741902
 C          0.5945138178        0.3711126745       -3.4287015291
 C         -1.3782264213        1.7958138852       -3.3084229102
 C          0.1482228339       -0.2024850991        0.0123495870
 C         -0.8005342766       -1.1085890039        1.0071089188
 C         -0.0224430114       -2.2725377125        1.8058592023
 C          0.3727799165       -3.5484071170        1.0404235216
 C          1.2683986426       -1.7889511473        2.4792379440
 C         -0.9646523180       -2.7711984541        2.9243563941
 C         -1.3383770955       -0.2824380219        2.1525981962
 C         -2.6200707015       -0.1916296960        2.5105959445
 C         -3.6704171418       -0.9053135387        1.8291004866
 C         -3.3769760048       -1.6854033140        0.7868441489
 C         -4.4018362817       -2.6007965123        0.1360445945
 C         -4.2965977969       -2.5844927128       -1.3926732108
 C         -5.8365389889       -2.2084940887        0.5043854116
 C         -4.1551176695       -4.0328463972        0.6362731995
 C         -1.9838542967       -1.7242323586        0.2086700241
 C          1.0896507982       -1.1270005867       -0.7430602940
 C          0.6003145287       -2.1776425346       -1.5126885046
 C          1.3984262273       -2.9721664358       -2.3176482296
 C          2.7581372559       -2.7268805706       -2.3779247006
 C          3.2926563697       -1.7393317094       -1.5795234028
 C          2.4858160132       -0.9630916576       -0.7381815013
 N          3.0964902202       -0.0571004963        0.1020192016
 C          4.5092033007        0.0647112862        0.0902727250
 C          5.1057175658        1.1358967559       -0.5642754203
 C          6.4834039583        1.2570141729       -0.5795145965
 C          7.2716743763        0.3110306878        0.0548555401
 C          6.6794369438       -0.7567596509        0.7090057696
 C          5.3022061910       -0.8815913517        0.7295186759
 C          2.3594818128        0.7483685133        0.9500533756
 C          3.0533672654        1.5623263434        1.8515502088
 C          2.3915828327        2.4731544894        2.6433484335
 C          1.0210829309        2.6029988296        2.5043824760
 C          0.3349549208        1.7659824983        1.6452587648
 C          0.9585429013        0.7699502339        0.8913197474
 C         -1.9233648842        1.3294259896       -0.5526909788
 H         -3.5381062181        2.5753717245        1.8688835202
 H         -4.2416699313        1.3889831889        0.7693326490
 H         -5.1688475258        2.8099288718        1.2413908167
 H         -3.4333453214        5.3414797133       -0.6999912279
 H         -4.7350323911        4.9697167844        0.4212545254
 H         -3.0671257608        4.9727853444        0.9918067498
 H         -4.0960166212        3.5073093031       -2.2840203924
 H         -4.5333902695        1.9153032603       -1.6493681744
 H         -5.5002094817        3.3239313812       -1.2326175275
 H         -1.3329813329        4.7572911757       -0.5773345284
 H          0.9290631353        4.0169078905       -1.0342360754
 H          1.4710225204        1.6854954322       -1.3710847578
 H         -2.6154432532       -0.5623355971       -2.5650667429
 H         -1.2069918668       -1.5714482078       -2.9477409405
 H         -1.8776396576       -0.4961089166       -4.1421786087
 H          1.2474399107       -0.3695623739       -2.9943307385
 H          1.1256350529        1.3157790107       -3.4928230793
 H          0.3690387831        0.0573693585       -4.4472651869
 H         -2.4117733517        1.9151055740       -3.0139089838
 H         -1.3523017523        1.6796425656       -4.3912414355
 H         -0.8398548088        2.6991740057       -3.0583637552
 H         -0.4722417219       -4.0372470813        0.5672227441
 H          0.7762303383       -4.2556908894        1.7640018770
 H          1.1407765931       -3.3726883307        0.3025175558
 H          1.5807491284       -2.5317732708        3.2139794996
 H          2.0672750029       -1.6891732276        1.7555987874
 H          1.1447055813       -0.8462337600        2.9976872378
 H         -1.0481031213       -2.0492786329        3.7283344090
 H         -0.5709696805       -3.6921313413        3.3512169154
 H         -1.9543811462       -2.9728689707        2.5348479760
 H         -0.6089634721        0.1637881245        2.8041813858
 H         -2.8971167146        0.3819896328        3.3875960660
 H         -4.6604348399       -0.8340399444        2.2465367314
 H         -5.0396995773       -3.2548333298       -1.8185884843
 H         -3.3192754967       -2.9089140713       -1.7266072379
 H         -4.4917026126       -1.5844821466       -1.7686722976
 H         -6.5383120425       -2.8237644300       -0.0537471635
 H         -6.0254388030       -2.3633522007        1.5619003025
 H         -6.0235072993       -1.1665523597        0.2597332069
 H         -4.9024934990       -4.7069236649        0.2244349059
 H         -4.2190904331       -4.0688487514        1.7209676754
 H         -3.1744678658       -4.3878334344        0.3355023069
 H         -1.7702517596       -2.7680609270       -0.0035523692
 H         -2.0421876745       -1.2079113963       -0.7429271610
 H         -0.4397058216       -2.4181292484       -1.4656934442
 H          0.9592949186       -3.7725719451       -2.8964008366
 H          3.4005091208       -3.3086498407       -3.0226479199
 H          4.3547798588       -1.5623489405       -1.6025881092
 H          4.4822222113        1.8702103017       -1.0518622966
 H          6.9431538979        2.0902889339       -1.0896460027
 H          8.3465234360        0.4065282487        0.0408077847
 H          7.2923658212       -1.4932063633        1.2066657134
 H          4.8323937507       -1.7108057379        1.2366188601
 H          4.1252574637        1.4807674723        1.9204751986
 H          2.9425339542        3.0913226698        3.3371663630
 H          0.4836840715        3.3546666098        3.0650629064
 H         -0.7177449959        1.9430654639        1.5426904167
 H         -2.0688972042        0.9455475480        0.4522334349
 H         -2.7209139067        0.8860553020       -1.1465803948
