47
 energy: -66.297122036919 gnorm: 0.000140852362 xtb: 6.7.1 (edcfbbe)
C            1.22075211339469        4.75394620198075        1.87459017572139
C           -0.01159901451251        4.31747139383393        1.09187566437867
C            0.30351019425586        3.16851634605697        0.13718818387724
C           -0.92418175198509        2.73327652515849       -0.65710138419801
C           -0.62254753749802        1.55417594612842       -1.59964983481734
C           -0.31207503678810        0.30457484737171       -0.84451299452007
C            0.99430518882293       -0.12693646229830       -0.60425875809349
N            2.16155297664058        0.47701393973794       -1.00761392046377
C            3.24000461518985       -0.24210083432193       -0.58046966190086
C            4.59032168981055       -0.00603693547539       -0.75203473303100
C            5.47888121756106       -0.91916676861481       -0.20247106459444
C            5.01458833630361       -2.03993245805298        0.50052859067647
C            3.67313951018890       -2.28638703112477        0.67926691748117
C            2.74599116654100       -1.38183614589284        0.13730332933080
C            1.34010982982070       -1.29660840137749        0.11554846710142
C            0.31197930202784       -2.12347109431575        0.65961307896649
C           -0.98811942325724       -1.69731206246673        0.43877991313606
N           -2.13803400653375       -2.31513513517926        0.86337148123333
C           -3.22780670643114       -1.60141712088098        0.46156738806803
C           -4.56806243456767       -1.86011587920310        0.67316564365024
C           -5.48984127490891       -0.96211064060070        0.15768671291748
C           -5.05801105965461        0.16711956409000       -0.55144736692447
C           -3.72719574110448        0.43491376419911       -0.76958383543027
C           -2.75684880950039       -0.45287952624347       -0.26585363905583
C           -1.34665132731560       -0.52560272905773       -0.27539166026046
H            0.97539545927404        5.56619998513350        2.55472896156652
H            1.61466645237670        3.92430914191477        2.45776020956594
H            2.00156186713321        5.09740712951989        1.19894390817031
H           -0.79135067937512        4.00129677376930        1.78811747865017
H           -0.40017208589674        5.16562002792568        0.52285188481275
H            1.09098261370173        3.48767959560494       -0.55199850256111
H            0.68208950327615        2.32045684499914        0.71227511188669
H           -1.29000404118846        3.57637913136805       -1.24861700777625
H           -1.71387119897839        2.43821173765688        0.03580861288427
H           -1.49199998193623        1.37922592747874       -2.23580461191622
H            0.21186529817797        1.82510204941473       -2.25186305463352
H            2.21549712933170        1.33822012306486       -1.52559190242279
H            4.94218334854112        0.85909652999025       -1.29510420352432
H            6.54097788275229       -0.76724852889902       -0.31624127479050
H            5.74029880892784       -2.72706325599160        0.91219913324436
H            3.33354904254420       -3.15430250062229        1.22332627202551
H            0.54264384896118       -3.01968146375367        1.21078070563267
H           -2.16748508823580       -3.17131925603799        1.39225441963203
H           -4.88422099116618       -2.73457157799464        1.22315530125087
H           -6.54561394012045       -1.13077655621985        0.30111260199544
H           -5.80253234198799        0.84845790755554       -0.93869454075553
H           -3.44200737139507        1.31912253249962       -1.31576162925579
