  47
        -66.29292485
 C          1.2304948694        4.7481774294        1.8730007524
 C         -0.0043315990        4.3183514911        1.0904843457
 C          0.3065176104        3.1720904821        0.1312930866
 C         -0.9243374237        2.7350393877       -0.6569624005
 C         -0.6259500329        1.5536551652       -1.5975365863
 C         -0.3167415733        0.3048823296       -0.8392986560
 C          0.9879980241       -0.1239708495       -0.5994559463
 N          2.1551889003        0.4781033979       -1.0012582218
 C          3.2361178656       -0.2410986117       -0.5747424852
 C          4.5843667371       -0.0014974912       -0.7492126636
 C          5.4779931628       -0.9160991443       -0.2024632759
 C          5.0165020763       -2.0367219583        0.4975769686
 C          3.6730337897       -2.2858190385        0.6792798649
 C          2.7447428812       -1.3816399609        0.1414591391
 C          1.3366720561       -1.2983266077        0.1221469033
 C          0.3123141790       -2.1198245555        0.6626611392
 C         -0.9859854089       -1.6957141338        0.4421250572
 N         -2.1362763307       -2.3129783667        0.8629023697
 C         -3.2281335506       -1.6004326025        0.4593402663
 C         -4.5665393915       -1.8650851492        0.6693715309
 C         -5.4930514667       -0.9684371167        0.1524612122
 C         -5.0634822453        0.1609888531       -0.5528937465
 C         -3.7304981898        0.4345071111       -0.7686598955
 C         -2.7593814582       -0.4508359952       -0.2657542220
 C         -1.3466831723       -0.5202920879       -0.2744876459
 H          0.9885278507        5.5572309283        2.5580508007
 H          1.6235130913        3.9143132229        2.4507525772
 H          2.0107390898        5.0933309002        1.1976139235
 H         -0.7838810946        4.0018031963        1.7866730923
 H         -0.3912300942        5.1695762727        0.5251795299
 H          1.0894240993        3.4938668947       -0.5617917613
 H          0.6896316361        2.3239858235        0.7030929733
 H         -1.2928447039        3.5766946035       -1.2487642629
 H         -1.7111808658        2.4411002857        0.0396281580
 H         -1.4967666074        1.3782142178       -2.2315613237
 H          0.2077184235        1.8217657120       -2.2518401332
 H          2.2100521307        1.3415646439       -1.5157709750
 H          4.9341053654        0.8649791242       -1.2913338999
 H          6.5392211425       -0.7614677478       -0.3193296383
 H          5.7425792754       -2.7253244932        0.9062716521
 H          3.3365502158       -3.1555693918        1.2220557466
 H          0.5414748749       -3.0164440124        1.2143544525
 H         -2.1664608049       -3.1695096802        1.3915088072
 H         -4.8803828273       -2.7411557730        1.2179618836
 H         -6.5480878866       -1.1422633705        0.2941134853
 H         -5.8083701333        0.8409563697       -0.9420357437
 H         -3.4484076347        1.3211123618       -1.3124244589
