47
 energy: -66.391409765810 gnorm: 0.000030213582 xtb: 6.7.1 (edcfbbe)
C            1.16893181875743        4.75548410578525        1.87762395522924
C           -0.05677959277692        4.31228953720562        1.08833138865147
C            0.26998604063494        3.16809462899517        0.13208340736383
C           -0.95342717015062        2.72080610140561       -0.66309176356751
C           -0.64599058628176        1.54066248411008       -1.59503631531770
C           -0.32626649385311        0.29180512235907       -0.82466391356033
C            0.98447864225893       -0.11087112416898       -0.59838333590240
N            2.15205784464855        0.49750971070606       -1.01093058340496
C            3.22770097499392       -0.22713599878442       -0.57714394609528
C            4.58316775308983        0.00786203717052       -0.75248807931822
C            5.46956785876388       -0.89897799711477       -0.20381119606544
C            5.02270944387704       -2.01350423698219        0.50322055260893
C            3.67410459180614       -2.25095268731296        0.68192224205963
C            2.76256621584157       -1.35415334019833        0.14032372983644
C            1.32863405583574       -1.28177154295988        0.12957417017268
C            0.34434526350331       -2.09674172239610        0.66822279026183
C           -0.96072756431952       -1.69881581551474        0.45703331763590
N           -2.10998834154180       -2.32422947220659        0.87921498803352
C           -3.19816164158521       -1.61019680672337        0.46085035714547
C           -4.54299608118344       -1.87822309482300        0.66386113534406
C           -5.46415785456264       -0.99331140157595        0.13940838760788
C           -5.05008872429627        0.13293562401119       -0.56581932669295
C           -3.71038646610204        0.40331535600149       -0.76821741601993
C           -2.75604508375523       -0.47235054354687       -0.25959077224675
C           -1.31405905617126       -0.52576683997159       -0.26899338487160
H            1.95054461051525        5.10526384479277        1.20619229125699
H            0.91530526470699        5.56471620326602        2.55842458708499
H            1.56555716178274        3.92709826176671        2.46076446563889
H           -0.83717048265487        3.98893761221467        1.78071808256114
H           -0.44915886152116        5.15920385172798        0.51998373758664
H            1.05392089490908        3.49542943345371       -0.55698287948645
H            0.65715999527258        2.32320085901170        0.70583095053985
H           -1.32259279715205        3.56004152580384       -1.25846641890642
H           -1.74248118585774        2.42831853536460        0.03218468241356
H           -1.50731490818807        1.35156305973522       -2.23744122561947
H            0.19109864494950        1.80518779560838       -2.24561858313125
H            2.20703255581266        1.35896529294170       -1.52414588357249
H            4.93317188544252        0.87079967147839       -1.30018782920501
H            6.53143608328679       -0.74182188540414       -0.32497533156539
H            5.74723087609596       -2.69963771547513        0.91648527041588
H            3.33229613578431       -3.11559859598398        1.23105352529283
H            0.58626901270975       -2.99132120326070        1.22060344791395
H           -2.14051071144870       -3.17778008664549        1.40866164652462
H           -4.85591481772702       -2.75246993093791        1.21598077730750
H           -6.51951994552957       -1.17465666628445        0.28031389703171
H           -5.79343142258778        0.81000776499463       -0.96047574108990
H           -3.42619109459759        1.28922682483358       -1.31255166752411
