47
 energy: -66.390183866002 gnorm: 0.000092371089 xtb: 6.7.1 (edcfbbe)
C           -1.65583162369819        4.51343600818570        1.36637530246899
C           -2.67152123830733        3.76700013503519        0.50924398879652
C           -2.02670754496938        2.92254207367683       -0.59020389379823
C           -1.23631772031339        1.73312199990995       -0.05062060423617
C           -0.69011343925024        0.85431979246157       -1.18186471516345
C            0.06705511968888       -0.32022162819192       -0.63396957398970
C            1.44354394435117       -0.26781857562828       -0.45274234659989
N            2.30163918575413        0.77950600365872       -0.71700257940249
C            3.58257921300871        0.41429679994867       -0.40523656978257
C            4.76004220331808        1.14006652188796       -0.50531219781749
C            5.93256621150511        0.52081234810504       -0.11687877367985
C            5.93791509838948       -0.78813583223254        0.36084057053182
C            4.76787083197784       -1.51441867435053        0.46381395376550
C            3.57569345165202       -0.91487234105623        0.07950221711756
C            2.20852306864758       -1.35286407203049        0.05259033988783
C            1.59646181633009       -2.54566987842600        0.40815760119284
C            0.22537960663854       -2.59835474941757        0.25375385399320
N           -0.61445977327662       -3.64967771509382        0.53639379484862
C           -1.90366205567825       -3.29323945417830        0.25300604613074
C           -3.06309894594230       -4.03959948947905        0.39575451210090
C           -4.26044012093878       -3.44520992193587        0.04955464651363
C           -4.29774498552692       -2.13545757311569       -0.42005470819412
C           -3.14380521211547       -1.38939228187471       -0.56310407592864
C           -1.91913565903701       -1.96301075614412       -0.23604074804728
C           -0.54866976715662       -1.51264048805510       -0.24664345245592
H           -1.03033003002938        3.82120181642381        1.92384472706172
H           -1.01503306863650        5.13449454490460        0.74355924144091
H           -2.16547958866189        5.15698480331296        2.07989482256827
H           -3.27983014417386        3.12165225597536        1.14691911510696
H           -3.33977452717550        4.49459697130651        0.04202079795630
H           -2.81410457516428        2.54995768703193       -1.25090066651054
H           -1.36873010248468        3.55619838789087       -1.19088273670846
H           -1.87974387855174        1.12718834317604        0.59073346567978
H           -0.39996029957682        2.08301848811194        0.55730956739477
H           -1.51257232126026        0.50017292217406       -1.80422071676612
H           -0.03670042874409        1.45368545323453       -1.82130370634876
H            2.02844599434034        1.67939175855434       -1.06983124029297
H            4.75967979997556        2.15511667713179       -0.87528686452177
H            6.86518277102482        1.06170754188546       -0.18472467023688
H            6.87530208289481       -1.23727527457698        0.65420485582397
H            4.77656055241692       -2.52830621832001        0.83516650081867
H            2.16085756220799       -3.38375039252522        0.78629398135606
H           -0.32208430609049       -4.53894943008010        0.90179134870760
H           -3.02677622804526       -5.05273474289068        0.76898385785177
H           -5.18122896359806       -4.00083476087556        0.14958948196853
H           -5.25033978413262       -1.69411856099014       -0.67424357327796
H           -3.21110518156718       -0.37391352249685       -0.91822917731875
