69
 energy: -110.898024951057 gnorm: 0.000078977376 xtb: 6.7.1 (edcfbbe)
C            6.78292198889653        0.29639933003867        1.27374198244121
C            6.28141448656958        1.39449551951747        0.58565746022998
C            4.99038787933905        1.38801602047904        0.10831010525506
C            4.16537061975419        0.27088576279531        0.31048078548074
C            2.81950301721915        0.26191513351157       -0.17297034453906
N            2.30014593630423        1.31959846145248       -0.76927374550440
C            1.04641527052119        1.33109943540906       -1.16792915063789
C            0.47676913856704        2.48973935611029       -1.79008852724239
C            1.23974949204842        3.65244135995761       -1.97408776151422
C            0.67541477897436        4.76922973774329       -2.54851854982105
C           -0.65461783542431        4.75887488840331       -2.95026810888732
C           -1.41744054249310        3.61184187776976       -2.77550732901493
C           -0.86403937956433        2.48701371277257       -2.20446951949909
N            0.23124064248977        0.23125440111223       -0.97247393396581
C            0.79586463696624       -0.78769354016662       -0.36259202745519
N           -0.01807786854482       -1.90128530738945       -0.18023938175197
C            0.37392858858979       -3.18353723644990       -0.54286072629843
C            1.64962613741462       -3.68763749323698       -0.72833825341948
C            1.76508860746187       -5.01881345883999       -1.08917273852758
C            0.64162979613400       -5.81888076565315       -1.27479107210494
C           -0.63415721023315       -5.31090873866639       -1.10634701413285
C           -0.77317672742834       -3.98099978500392       -0.73750876058802
C           -1.91289052247608       -3.13709058172857       -0.48545495662662
C           -3.27892381393998       -3.38025729506491       -0.57801614874108
C           -4.16704095616613       -2.35908899208659       -0.29567407749115
C           -3.68134232390965       -1.13684753148939        0.15388003514506
C           -4.35859490547254        0.04643979453902        0.60699678486505
C           -5.69761487503044        0.40016112786778        0.69047344752668
C           -6.02324218421349        1.62801495284743        1.23541056782653
C           -5.03409050370165        2.48322112050127        1.71335029975453
C           -3.69394707003857        2.14942475478994        1.64313121249215
C           -3.35848910393570        0.93447594466643        1.06242978503644
N           -2.11601666087068        0.35332027864576        0.88317106413988
C           -0.92209662022737        0.86336880079004        1.41533766783263
C           -0.55092623053393        2.18636198795524        1.18743071472772
C            0.63667978884272        2.66409115062435        1.70792360463894
C            1.45455336257153        1.84008348287544        2.46473945423906
C            1.06844319270933        0.53362123745659        2.72087593095091
C           -0.11587343660760        0.04459852224515        2.20589158575480
C           -2.29154383610739       -0.88635145809296        0.31502220600413
C           -1.39769266515518       -1.87078768586186       -0.11244926611144
N            2.04081980833764       -0.85834462638184        0.03638085095522
C            4.68120760946886       -0.83195767422350        1.00794507683898
C            5.97462613139489       -0.81322781319077        1.48112774519471
H            7.79657362806735        0.30650181785904        1.64611264170524
H            6.91017841864932        2.25878128224387        0.42487699884911
H            4.58886813340926        2.23446770765558       -0.42750807099837
H            2.27065284562084        3.64956484330688       -1.65499540550008
H            1.27014555614986        5.66096011188781       -2.68740405784521
H           -1.09258339380626        5.63853044143893       -3.39819252688725
H           -2.45194918362107        3.60132848130095       -3.08897883994639
H           -1.44639091866588        1.58850165080023       -2.06593911786573
H            2.51481579183550       -3.05788926528244       -0.59390143808089
H            2.74708502115993       -5.44307197509367       -1.23419582138496
H            0.77073832208106       -6.85223579373466       -1.55999253423618
H           -1.50308789232723       -5.93318775597092       -1.25641298899557
H           -3.63317367924558       -4.35311862334233       -0.88026775719306
H           -5.23065021086654       -2.51095750014106       -0.39221717862498
H           -6.46517843856465       -0.27253525263939        0.33976439488793
H           -7.05851212979680        1.92598578184334        1.30494203773045
H           -5.31891586355417        3.42688389784493        2.15373873159753
H           -2.94042545278486        2.81115497569653        2.03997614195922
H           -1.16165503677562        2.81313973945518        0.55639301700591
H            0.93477501632180        3.68049073733851        1.49978715611232
H            2.39258030720199        2.21071761084128        2.84825107658851
H            1.69944455920530       -0.11054765709593        3.31417695704888
H           -0.42253253236381       -0.97165778620098        2.40797748997865
H            4.04189021964887       -1.68661910440038        1.16999945953173
H            6.36318721545751       -1.66727312397650        2.01787046200831
