69
 energy: -110.898005031384 gnorm: 0.000073350845 xtb: 6.7.1 (edcfbbe)
C            6.79010866020780        0.68184733632048        1.22717354000020
C            6.21308085795328        1.75635502047053        0.56144091331245
C            4.91315718730964        1.68311921794143        0.11484819392109
C            4.15529071454612        0.52086452681244        0.32567342142167
C            2.80403497160833        0.43933518024050       -0.13570488418720
N            2.21594986882715        1.47171277414519       -0.71228611379271
C            0.96347264818572        1.40875007634632       -1.11018540866401
C            0.31545858156261        2.54072027457159       -1.70406450520245
C            0.99304087254406        3.76046388844566       -1.84872116943584
C            0.35016368720897        4.85170344143457       -2.38877649499626
C           -0.97539714487349        4.75881057893197       -2.79469938160905
C           -1.65337165855064        3.55437813589738       -2.66078339223986
C           -1.02074359039567        2.45439850820090       -2.12480786445744
N            0.22449116134519        0.25267435431570       -0.93997358472044
C            0.85111201010095       -0.73509647665424       -0.33890551584155
N            0.11029299927990       -1.90063370763974       -0.17544194997195
C            0.59239133228924       -3.15437321394484       -0.53061631285340
C            1.90173873395157       -3.57654957471368       -0.68233873791246
C            2.11080137000525       -4.89711092006729       -1.04029427508569
C            1.04563561263238       -5.76616063356732       -1.25646662695521
C           -0.26373715355790       -5.33971100949424       -1.12337751286185
C           -0.49628037684849       -4.02204804709728       -0.75781809904487
C           -1.69378259519920       -3.25271799538356       -0.53635321153084
C           -3.03864154576384       -3.57930890442567       -0.67265760743809
C           -3.99649629270666       -2.61587182800430       -0.41653863586417
C           -3.60169029825820       -1.36904878534775        0.05412948470319
C           -4.36405646214131       -0.23176055168116        0.48945116450105
C           -5.72397587208703        0.04088590297002        0.52438196992988
C           -6.14249262342481        1.24346111406034        1.06214459627061
C           -5.22451899383523        2.15212261580504        1.58147683285035
C           -3.86512795988883        1.89896316537911        1.56045810202712
C           -3.43583992002515        0.71088922754854        0.98594881208272
N           -2.15506813881453        0.20650385471404        0.84734356223485
C           -1.01051032136077        0.77680024239173        1.42412034492921
C           -0.71285998809165        2.12426237187071        1.23430014300442
C            0.43172297683913        2.65884948545794        1.79453527114320
C            1.27912396446290        1.86751040225430        2.55339791839998
C            0.96431589831025        0.53542781379179        2.77291788400213
C           -0.17692961156928       -0.00998014378868        2.21903702565204
C           -2.23604678950631       -1.03574653015787        0.26323727935996
C           -1.27026387685142       -1.95898533734533       -0.14358704041576
N            2.09630404349224       -0.72838761612239        0.06581386591160
C            4.74642101207990       -0.55671458544578        1.00249172008723
C            6.04805004568277       -0.47119953377713        1.44487085172765
H            7.81092572171511        0.74373008547642        1.57406988183524
H            6.79004525120429        2.65461974800875        0.39293256645995
H            4.45387451898761        2.51007279864263       -0.40476368286668
H            2.02074070142954        3.82196268554606       -1.52524290193247
H            0.87900841528709        5.78815234427938       -2.49629341292061
H           -1.47562892922555        5.61911043257101       -3.21409127992369
H           -2.68413801466767        3.47938374932272       -2.97780628888877
H           -1.53696715006985        1.51221468552700       -2.01776494963907
H            2.72134012307328       -2.89339928461923       -0.52529624611394
H            3.12122802328820       -5.25821148111227       -1.15856586789055
H            1.24736923531576       -6.78893057283663       -1.53767953284647
H           -1.08738595600606       -6.01509330658991       -1.29732888867534
H           -3.32243042452803       -4.57048368579795       -0.98943022819194
H           -5.04500410289261       -2.83190144965227       -0.54925791196667
H           -6.43622229805875       -0.67382702892931        0.14152893235461
H           -7.19551111684892        1.47921920146841        1.09335437362471
H           -5.58119678562251        3.07420795580045        2.01519435369415
H           -3.16858940893963        2.60163324895937        1.98948680076497
H           -1.34364248889749        2.72877350790530        0.60154934415652
H            0.67359903800507        3.69556333634676        1.61567309150215
H            2.18436688598331        2.28377344374333        2.96764604110906
H            1.61714182972843       -0.08384719312960        3.36912529798319
H           -0.42852367716706       -1.04613591284120        2.39418766728668
H            4.15860555839101       -1.44596934992849        1.17305515740996
H            6.49514608178501       -1.30679512678597        1.96481365518020
