  57
        -86.09670952
 C         -2.7805610468        2.7059197211        3.1693591890
 C         -2.4736561821        1.4012678170        3.5263775126
 C         -2.2614256732        0.4299693005        2.5572294335
 C         -2.3629104181        0.7927913265        1.2322284880
 C         -2.6719252906        2.1107197011        0.8650986162
 C         -2.8824878373        3.0744743205        1.8374641753
 C         -2.7085739361        2.1879813792       -0.5867108196
 C         -2.9613600882        3.2496882596       -1.4396906482
 C         -2.9268435725        3.0248507702       -2.8066286446
 C         -2.6456131614        1.7653421568       -3.3149131478
 C         -2.3907564467        0.6966285565       -2.4660802034
 C         -2.4242379739        0.9166266288       -1.1065437597
 C         -2.1780675259       -0.0707866434        0.0080715906
 C         -3.0997916766       -1.2647110056       -0.0282255794
 C         -4.4700327564       -1.2853237455        0.0066243272
 C         -5.1211516129       -2.5177528016       -0.0355170589
 C         -4.3948574103       -3.7050014173       -0.1119767838
 C         -3.0177341487       -3.6986762969       -0.1474485279
 C         -2.3475093733       -2.4673513280       -0.1060253369
 C         -0.9686835162       -2.1464140745       -0.1281033645
 C          0.1937068578       -2.9426985499       -0.1905786862
 C          1.4174930595       -2.3474404577       -0.1792507799
 C          1.5912489868       -0.9214704269       -0.1259860153
 C          2.8744191351       -0.3302379578       -0.1373125710
 C          3.0645978982        1.0529560903       -0.4159359468
 C          4.2949845963        1.6226555787       -0.4487996684
 C          5.4811435284        0.8699226898       -0.1815586429
 C          6.7466316789        1.4356756469       -0.1972688523
 C          7.8766213263        0.6655666659        0.0737869110
 C          7.7420964914       -0.6875068162        0.3657524632
 C          6.4994088631       -1.2773299965        0.3876637964
 C          5.3288778635       -0.5193624078        0.1133040406
 C          4.0648404341       -1.0894380419        0.1269970615
 C          0.3964751335       -0.1287929946       -0.0689302811
 C         -0.8180117408       -0.7258210657       -0.0649842707
 H         -2.9423682031        3.4441217153        3.9412561872
 H         -2.3993261970        1.1375984231        4.5711320860
 H         -2.0226590155       -0.5865492460        2.8346371189
 H         -3.1216869709        4.0916534450        1.5647752433
 H         -3.1806345666        4.2323316000       -1.0490575136
 H         -3.1209533205        3.8413611341       -3.4868754522
 H         -2.6246344643        1.6141436128       -4.3840148534
 H         -2.1714466502       -0.2846982436       -2.8612591148
 H         -5.0354198471       -0.3664995797        0.0660935194
 H         -6.1995675345       -2.5529718469       -0.0078720468
 H         -4.9263019755       -4.6452224961       -0.1433504413
 H         -2.4593837505       -4.6206817258       -0.2069663413
 H          0.1053081965       -4.0175277411       -0.2514637587
 H          2.2931045286       -2.9712858369       -0.2576758182
 H          2.2070416757        1.6635658383       -0.6513849426
 H          4.4036435481        2.6708314033       -0.6896827762
 H          6.8537598886        2.4878180171       -0.4195658646
 H          8.8547025288        1.1215956575        0.0583672753
 H          8.6218638510       -1.2780126583        0.5768087802
 H          6.3949724682       -2.3287843369        0.6125915502
 H          3.9854792077       -2.1309974099        0.3937937840
 H          0.4602645053        0.9448385363        0.0103042752
  57
        -86.09645491
 C         -2.8134440603        2.7605574985        3.1149938646
 C         -2.5169805078        1.4608584054        3.4979152704
 C         -2.2986101388        0.4719437541        2.5481338244
 C         -2.3839736685        0.8119978856        1.2159616257
 C         -2.6836183997        2.1246054301        0.8227180934
 C         -2.8997978860        3.1061754582        1.7758492581
 C         -2.7052704646        2.1765388904       -0.6305345208
 C         -2.9522393177        3.2225202148       -1.5044000315
 C         -2.9087630189        2.9727517001       -2.8667483899
 C         -2.6239046750        1.7042684113       -3.3500417266
 C         -2.3740724380        0.6513822121       -2.4801340862
 C         -2.4165999861        0.8961989343       -1.1251599390
 C         -2.1837147646       -0.0720487075        0.0092012324
 C         -3.1037362166       -1.2672759129       -0.0263780207
 C         -4.4745170439       -1.2890924604       -0.0133191687
 C         -5.1235848626       -2.5223464260       -0.0572756610
 C         -4.3952745877       -3.7093866529       -0.1136055462
 C         -3.0175949404       -3.7018026458       -0.1272074557
 C         -2.3497625356       -2.4696476196       -0.0837045762
 C         -0.9710652318       -2.1473572674       -0.0857070110
 C          0.1941530997       -2.9393408302       -0.1285329107
 C          1.4161545461       -2.3411874311       -0.1132880429
 C          1.5937744344       -0.9136864667       -0.0551600888
 C          2.8760063853       -0.3213896381       -0.0372769190
 C          3.0615390661        1.0922298994       -0.0045187416
 C          4.2890949274        1.6669519883        0.0120029870
 C          5.4879967516        0.8882685863       -0.0016538163
 C          6.7528800695        1.4548836332        0.0150844091
 C          7.8933192077        0.6540744242       -0.0002502335
 C          7.7699818591       -0.7312326215       -0.0324717490
 C          6.5281218063       -1.3218347219       -0.0489360429
 C          5.3462566356       -0.5321802193       -0.0341258772
 C          4.0832391317       -1.1032313363       -0.0503026472
 C          0.3912613763       -0.1278632675       -0.0153523605
 C         -0.8216827005       -0.7269267722       -0.0305971004
 H         -2.9789016219        3.5131265716        3.8721133620
 H         -2.4545162759        1.2152533523        4.5477969187
 H         -2.0666423689       -0.5403925600        2.8457150852
 H         -3.1303732298        4.1197187965        1.4829479422
 H         -3.1751087302        4.2118739813       -1.1332197268
 H         -3.0998801848        3.7762699272       -3.5629948677
 H         -2.5965112956        1.5334422886       -4.4161222022
 H         -2.1521916784       -0.3369149651       -2.8559331177
 H         -5.0417083718       -0.3705152212        0.0298175910
 H         -6.2023401557       -2.5583757693       -0.0477923838
 H         -4.9252258493       -4.6502615653       -0.1466984907
 H         -2.4571835043       -4.6234359940       -0.1704198541
 H          0.1107348308       -4.0155100841       -0.1738255834
 H          2.2871053271       -2.9739492892       -0.1501722764
 H          2.1992704778        1.7391654084        0.0043778376
 H          4.3847376366        2.7434356972        0.0350758905
 H          6.8514598739        2.5309635858        0.0401233986
 H          8.8713927585        1.1103096328        0.0127731321
 H          8.6583970317       -1.3459357750       -0.0440902373
 H          6.4326306962       -2.3976876692       -0.0739423484
 H          4.0295166756       -2.1789275166       -0.0692708249
 H          0.4404215703        0.9476285799        0.0312014242
  57
        -86.09607142
 C         -2.4611238263        2.7798415428        3.1168808582
 C         -2.0313794537        1.5048619909        3.4538176747
 C         -1.9028318690        0.5184575636        2.4851836842
 C         -2.2092525101        0.8367340490        1.1804078986
 C         -2.6383769341        2.1261666262        0.8328958409
 C         -2.7688988554        3.1040164041        1.8052716999
 C         -2.8620623840        2.1655678502       -0.6035515058
 C         -3.3027323484        3.1840299421       -1.4325866258
 C         -3.4263777467        2.9284569337       -2.7889121039
 C         -3.1133404562        1.6819959778       -3.3107406912
 C         -2.6730126963        0.6558049237       -2.4856735151
 C         -2.5510804810        0.9059081633       -1.1364271716
 C         -2.1389562151       -0.0475012360       -0.0397747912
 C         -3.0548268789       -1.2471522145        0.0184625095
 C         -4.4114050202       -1.2756203655        0.2127180819
 C         -5.0604915675       -2.5098379187        0.2117527786
 C         -4.3463717694       -3.6903971702        0.0122935261
 C         -2.9830679635       -3.6758327380       -0.1839227882
 C         -2.3143919358       -2.4427145880       -0.1812132295
 C         -0.9457197954       -2.1155198627       -0.3324381128
 C          0.2053797878       -2.9105660962       -0.5128500396
 C          1.4312735979       -2.3205639216       -0.5245189017
 C          1.6133038326       -0.9024208695       -0.3800220833
 C          2.9020669896       -0.3285285692       -0.2994110687
 C          3.1276084336        1.0612714688       -0.5036290276
 C          4.3591644924        1.6178602027       -0.3852527003
 C          5.5027631798        0.8430908701       -0.0140675332
 C          6.7611664456        1.3993489964        0.1569781334
 C          7.8468882423        0.6091048236        0.5316927107
 C          7.6768854364       -0.7563257540        0.7328085726
 C          6.4417963140       -1.3384078832        0.5640888186
 C          5.3147330333       -0.5582607947        0.1890938828
 C          4.0555196348       -1.1168028691        0.0308090535
 C          0.4268871731       -0.1031437948       -0.2750309756
 C         -0.7896419618       -0.6961038076       -0.2385108708
 H         -2.5533827557        3.5307816881        3.8879227178
 H         -1.7918582740        1.2771659108        4.4820180780
 H         -1.5664178995       -0.4743145962        2.7467911960
 H         -3.0991684593        4.0993911266        1.5473881579
 H         -3.5495069096        4.1557017144       -1.0310033970
 H         -3.7725723870        3.7097221026       -3.4498592506
 H         -3.2160374930        1.5068632761       -4.3715611315
 H         -2.4344588950       -0.3169253551       -2.8908416961
 H         -4.9674433685       -0.3619519660        0.3656882308
 H         -6.1279284389       -2.5516851710        0.3662431153
 H         -4.8766388742       -4.6317991263        0.0122594307
 H         -2.4337745184       -4.5925177826       -0.3371033929
 H          0.1062964741       -3.9792351375       -0.6352791699
 H          2.3017285808       -2.9359625701       -0.6878599861
 H          2.3007635998        1.6866453676       -0.8035008556
 H          4.5013358186        2.6727636177       -0.5731465374
 H          6.8967961528        2.4606481839        0.0039312489
 H          8.8183856654        1.0594592489        0.6669943496
 H          8.5224066175       -1.3629723415        1.0234699549
 H          6.3090458455       -2.3993822914        0.7182971093
 H          3.9404188022       -2.1700503384        0.2304812411
 H          0.5040476728        0.9663454260       -0.1586264711
  57
        -86.09592002
 C         -2.3841448170        2.7900349069        3.0983934442
 C         -1.9765768935        1.5075053592        3.4341948794
 C         -1.8779344508        0.5166028287        2.4667819550
 C         -2.1940650797        0.8374172990        1.1649783233
 C         -2.6052107946        2.1330329067        0.8192305141
 C         -2.7030545867        3.1162830077        1.7899450396
 C         -2.8559732560        2.1696444614       -0.6127540533
 C         -3.3042631155        3.1894791477       -1.4359558853
 C         -3.4707435612        2.9271651853       -2.7863690745
 C         -3.1919166835        1.6726367162       -3.3080550024
 C         -2.7413726573        0.6458730799       -2.4891984993
 C         -2.5764143339        0.9026377436       -1.1457051190
 C         -2.1473317305       -0.0495925215       -0.0543765839
 C         -3.0544317674       -1.2543733230        0.0194012729
 C         -4.4070246032       -1.2917240206        0.2387384915
 C         -5.0474807571       -2.5304294402        0.2533022935
 C         -4.3293620513       -3.7067598725        0.0431878984
 C         -2.9702198573       -3.6833966117       -0.1792196541
 C         -2.3102057354       -2.4457130512       -0.1914958391
 C         -0.9459260287       -2.1108606771       -0.3625035252
 C          0.2067706694       -2.9003221373       -0.5567615258
 C          1.4301828846       -2.3057892226       -0.5683998359
 C          1.6080812563       -0.8885829453       -0.4075415484
 C          2.8956697622       -0.3159335216       -0.3044612766
 C          3.1256894880        1.0768484101       -0.4821326664
 C          4.3574790186        1.6285163997       -0.3440598370
 C          5.4970510241        0.8450481120        0.0214064665
 C          6.7563534130        1.3944364753        0.2079141684
 C          7.8373775050        0.5949170058        0.5763234191
 C          7.6616378194       -0.7726566752        0.7574468335
 C          6.4256103108       -1.3478205122        0.5737892996
 C          5.3037212525       -0.5585425552        0.2024786230
 C          4.0443530743       -1.1110757450        0.0262111323
 C          0.4187907407       -0.0932491227       -0.3031294689
 C         -0.7956199276       -0.6908680162       -0.2676935166
 H         -2.4514187330        3.5449146456        3.8681730993
 H         -1.7299491418        1.2775872928        4.4602311960
 H         -1.5567461802       -0.4815958525        2.7266747086
 H         -3.0172230843        4.1171438173        1.5332748159
 H         -3.5269214656        4.1665647104       -1.0336142822
 H         -3.8250205767        3.7089493227       -3.4423531982
 H         -3.3300394448        1.4915495780       -4.3638803306
 H         -2.5285174085       -0.3325351266       -2.8949231599
 H         -4.9663563666       -0.3815997549        0.4006671527
 H         -6.1113901177       -2.5792131618        0.4288690768
 H         -4.8527816783       -4.6519062033        0.0575364079
 H         -2.4174006090       -4.5965822026       -0.3405748760
 H          0.1108025951       -3.9681602785       -0.6884005266
 H          2.3021201431       -2.9160958408       -0.7422973678
 H          2.3020443114        1.7099163817       -0.7746982004
 H          4.5028617403        2.6866332700       -0.5102753275
 H          6.8966438738        2.4574131669        0.0713943292
 H          8.8098716345        1.0396553934        0.7228805146
 H          8.5031006121       -1.3859493264        1.0459166475
 H          6.2879371907       -2.4101954316        0.7133244441
 H          3.9252973699       -2.1666191899        0.2104889106
 H          0.4922528201        0.9762609732       -0.1842472196
  57
        -86.09506582
 C         -2.0892518316        2.8195867763        3.0384104779
 C         -1.7113274175        1.5259170395        3.3662884096
 C         -1.7188575166        0.5191961983        2.4103075889
 C         -2.1119264503        0.8351828669        1.1283519209
 C         -2.4957634912        2.1412634143        0.7910960524
 C         -2.4865621467        3.1406497569        1.7502979225
 C         -2.8388138976        2.1696958898       -0.6218704060
 C         -3.3088501462        3.1937201646       -1.4275136895
 C         -3.5740518589        2.9209264379       -2.7599882649
 C         -3.3713446416        1.6517848997       -3.2813967689
 C         -2.8980613439        0.6210166612       -2.4804890131
 C         -2.6344990832        0.8883855902       -1.1549680373
 C         -2.1541917834       -0.0620962567       -0.0837418281
 C         -3.0480476340       -1.2712245892        0.0407659665
 C         -4.3851406515       -1.3172984703        0.3389359418
 C         -5.0166566281       -2.5598295333        0.3887581632
 C         -4.3058720653       -3.7315894835        0.1330542388
 C         -2.9624025110       -3.7000418601       -0.1689746658
 C         -2.3105156392       -2.4587132534       -0.2155606992
 C         -0.9582327751       -2.1177153577       -0.4545400332
 C          0.1908078305       -2.9000702664       -0.6979343360
 C          1.4115243326       -2.3009572440       -0.7326319779
 C          1.5880292167       -0.8861075466       -0.5492186819
 C          2.8711919122       -0.3127758298       -0.4073833277
 C          3.1009014777        1.0841349793       -0.5507272526
 C          4.3165744915        1.6417057569       -0.3244245349
 C          5.4340711882        0.8597266832        0.1065420892
 C          6.6678412360        1.4173476403        0.4060640371
 C          7.7268127393        0.6198463035        0.8363552298
 C          7.5568782001       -0.7550667099        0.9606571841
 C          6.3474274823       -1.3385336134        0.6630543594
 C          5.2455353453       -0.5505534773        0.2336015526
 C          4.0069717969       -1.1098353569       -0.0417099090
 C          0.3990220441       -0.0938208551       -0.4270714457
 C         -0.8107926705       -0.6972821735       -0.3619908434
 H         -2.0696602139        3.5875177438        3.7979452177
 H         -1.4027122740        1.3000850615        4.3763437108
 H         -1.4181286781       -0.4872674522        2.6628444176
 H         -2.7760089194        4.1503705546        1.4993448479
 H         -3.4724747772        4.1824726479       -1.0251647468
 H         -3.9476498514        3.7058348154       -3.4013738530
 H         -3.5892977778        1.4618014462       -4.3220253809
 H         -2.7455277012       -0.3689521047       -2.8853470715
 H         -4.9391472161       -0.4109642419        0.5363921769
 H         -6.0679976378       -2.6150865956        0.6268663048
 H         -4.8226987618       -4.6795517125        0.1741754373
 H         -2.4151151257       -4.6096700607       -0.3654217218
 H          0.0944116357       -3.9661567261       -0.8428720983
 H          2.2826873961       -2.9034117043       -0.9369563790
 H          2.2917220674        1.7148171952       -0.8861231311
 H          4.4646685782        2.7033344877       -0.4635333144
 H          6.8038200103        2.4853899287        0.3109548626
 H          8.6781503925        1.0710893441        1.0737935443
 H          8.3817232788       -1.3669871292        1.2961528660
 H          6.2136491406       -2.4061495922        0.7598035911
 H          3.8869871073       -2.1719810794        0.0995079653
 H          0.4719949104        0.9750481293       -0.3027213162
  57
        -86.09484651
 C         -2.0416428890        2.8058741444        3.0293717359
 C         -1.6698687362        1.5083790538        3.3491691456
 C         -1.6948370973        0.5050538592        2.3900220097
 C         -2.0988419809        0.8285912092        1.1133852968
 C         -2.4762243456        2.1383460202        0.7840341383
 C         -2.4498819926        3.1343237925        1.7465136545
 C         -2.8324180597        2.1735429425       -0.6255567954
 C         -3.3005981885        3.2044089505       -1.4235004262
 C         -3.5799066859        2.9386428938       -2.7545491007
 C         -3.3930793363        1.6694930128       -3.2817789916
 C         -2.9213925873        0.6318934157       -2.4886184050
 C         -2.6435250493        0.8921224226       -1.1645188513
 C         -2.1571593814       -0.0642246795       -0.1018843710
 C         -3.0483772755       -1.2735592001        0.0365442289
 C         -4.3826333905       -1.3196238812        0.3472674753
 C         -5.0094686031       -2.5633770588        0.4213219277
 C         -4.2968517133       -3.7366455780        0.1777361884
 C         -2.9566027292       -3.7051257902       -0.1383223683
 C         -2.3096160983       -2.4623878508       -0.2102743075
 C         -0.9602084099       -2.1211594901       -0.4643052948
 C          0.1889161574       -2.9033301033       -0.7084743249
 C          1.4083044932       -2.3023583575       -0.7525750221
 C          1.5833123938       -0.8861216928       -0.5765603635
 C          2.8649186056       -0.3117592018       -0.4263025240
 C          3.0953086003        1.0853551442       -0.5677274604
 C          4.3077691755        1.6438851455       -0.3271570941
 C          5.4206498926        0.8629129431        0.1174804029
 C          6.6503412871        1.4214875853        0.4319907067
 C          7.7042863097        0.6249053372        0.8760425391
 C          7.5335222057       -0.7500449062        0.9995140292
 C          6.3285068963       -1.3345458706        0.6863037163
 C          5.2318180176       -0.5475704457        0.2420570117
 C          3.9973004419       -1.1079781556       -0.0486571706
 C          0.3931825620       -0.0943285541       -0.4625630574
 C         -0.8152044776       -0.6995108455       -0.3879351019
 H         -2.0088241972        3.5709631019        3.7913431851
 H         -1.3526827021        1.2767512098        4.3552846303
 H         -1.3988417536       -0.5045200987        2.6356793867
 H         -2.7347923603        4.1469461309        1.5021545540
 H         -3.4517643313        4.1931428807       -1.0162509740
 H         -3.9514548591        3.7292213170       -3.3901956537
 H         -3.6206469039        1.4853524634       -4.3214512115
 H         -2.7799196087       -0.3575107864       -2.8988578038
 H         -4.9378829469       -0.4122974826        0.5367405942
 H         -6.0581267983       -2.6185737102        0.6710985594
 H         -4.8093443819       -4.6858064531        0.2407417215
 H         -2.4077980639       -4.6157909812       -0.3255586209
 H          0.0936304727       -3.9704711165       -0.8462607711
 H          2.2796817535       -2.9042852982       -0.9577062099
 H          2.2892313382        1.7157043382       -0.9112526838
 H          4.4563769690        2.7058016344       -0.4635532836
 H          6.7868138961        2.4896090676        0.3382534267
 H          8.6520593937        1.0770186643        1.1258542874
 H          8.3544165240       -1.3613061288        1.3458185580
 H          6.1941982720       -2.4021712787        0.7816854776
 H          3.8762762120       -2.1700571589        0.0921601081
 H          0.4641182944        0.9758856536       -0.3492775965
