50
 energy: -79.238767887037 gnorm: 0.000029134240 xtb: 6.7.1 (edcfbbe)
C            5.30119449007650       -2.77427868101335       -1.17931980307980
C            3.94932496083894       -3.03797717590041       -1.38248259710165
C            2.97507316608488       -2.11460650425734       -1.04192103058564
C            3.38614192423640       -0.91661802979250       -0.47680563471390
C            4.76125900625408       -0.62540841052652       -0.30464408204076
C            5.72033095664803       -1.56612635549124       -0.65227354941446
C            4.83508672340060        0.70955570891199        0.22084417209983
C            5.88932912245307        1.52179407584373        0.61318339214435
C            5.60411317090083        2.77382970661131        1.12743911740236
C            4.28910359674196        3.20752970893195        1.27226270976882
C            3.22145931210484        2.41317758502572        0.88938193872723
C            3.50155412488247        1.17187275643739        0.33749057155261
N            2.63417276301535        0.17948754509838       -0.08686658597730
C            1.25139108647621        0.26784510448229       -0.11756214386859
C            0.65344649730850        1.45981280325628       -0.64268782177595
C           -0.71644950502892        1.58326836500936       -0.71579800102120
C           -1.51052591797748        0.54762966540867       -0.25040842452926
C           -0.90854891685214       -0.68811522858183        0.29717307795888
C            0.47498649353906       -0.78961445649444        0.33322341496877
C           -1.97609836015111       -1.54539281947751        0.70066248984703
C           -2.25609676627947       -2.80717295012185        1.26549877310008
C           -3.60684763976798       -3.16669199209974        1.43258649690483
C           -4.70274224337307       -2.39149773494842        1.09212226114167
C           -4.45995347124648       -1.11192743410476        0.51807504948668
C           -5.11695898329853        0.05817535171538       -0.00379200071485
C           -6.44842396757147        0.42028465292610       -0.15868310145246
C           -6.75585350815647        1.65448533146522       -0.70945500060200
C           -5.75872698891142        2.54091875055120       -1.11126948383670
C           -4.41561609279854        2.21405671886353       -0.97143073236737
C           -4.09378612982463        0.98847956241563       -0.42536164700406
N           -2.86199056318510        0.40865623774015       -0.17436407544382
C           -3.11678164794864       -0.82192319791467        0.38143223178231
H            6.03168845632178       -3.52093254633569       -1.45251551288378
H            3.65280562302399       -3.97939908855274       -1.81945854707631
H            1.93262717225392       -2.32069225518068       -1.22813075599819
H            6.76986719222204       -1.35253250454139       -0.51954083388673
H            6.90825575548546        1.17729523155070        0.52440940439475
H            6.41074934197170        3.42175985201718        1.43611083835547
H            4.09591393568483        4.17995209968488        1.69930281778517
H            2.20592148004785        2.74706254456381        1.03457962951712
H            1.29475987922213        2.22315071025529       -1.05086497740791
H           -1.16076203026939        2.47063178228692       -1.14057289549047
H            0.94286793201481       -1.66245764365737        0.76275059773065
H           -1.47447731987832       -3.48524431343434        1.56819376593120
H           -3.80071256869400       -4.13714025248086        1.87011803200134
H           -5.70449178797787       -2.75286742401584        1.26016352516173
H           -7.23285699956370       -0.25574009530092        0.14750394263138
H           -7.79083551042335        1.93830142636815       -0.83143186071403
H           -6.03184538239066        3.49451649434815       -1.53618352862465
H           -3.64598205789417        2.90450088296613       -1.28303670086199
