50
 energy: -79.238767962653 gnorm: 0.000032651242 xtb: 6.7.1 (edcfbbe)
C            5.29595218367719        2.78519653017930        1.17974889325368
C            3.94367682185843        3.04567266786428        1.38434858997757
C            2.97126647827574        2.12001241597090        1.04472042248560
C            3.38457390181439        0.92309390907103        0.47898131391719
C            4.76021484472339        0.63509661176349        0.30550998979388
C            5.71741400498489        1.57805087168332        0.65225634036911
C            4.83665730195928       -0.69952907591465       -0.22041206042288
C            5.89244151241918       -1.50915056111958       -0.61403231888301
C            5.60968671736309       -2.76158003662681       -1.12867502893940
C            4.29556815346575       -3.19824409547395       -1.27260167092920
C            3.22641978653226       -2.40654534479141       -0.88840794883148
C            3.50409074527175       -1.16487575448469       -0.33613816245126
N            2.63477845730817       -0.17460317205731        0.08931422924613
C            1.25220242420418       -0.26575874503754        0.11978015169357
C            0.65644314168346       -1.45952922291252        0.64328281348100
C           -0.71323616865249       -1.58636509532945        0.71458714537896
C           -1.50922656301698       -0.55210790873484        0.24936082071057
C           -0.90952011486540        0.68590112991821       -0.29551185963393
C            0.47377563134944        0.79057427063069       -0.33026417107916
C           -1.97861216608938        1.54127587428734       -0.69907459843776
C           -2.26088338426775        2.80334750212705       -1.26207889001818
C           -3.61225522721195        3.15980215378230       -1.43056803879338
C           -4.70673675471424        2.38122554346665       -1.09321717241647
C           -4.46163195885054        1.10126916660927       -0.52110113071153
C           -5.11649999850782       -0.07147134665280       -0.00243869920524
C           -6.44728290556923       -0.43739158700838        0.14929937809673
C           -6.75246124364031       -1.67343136336841        0.69718320128401
C           -5.75373450867054       -2.55797768913490        1.09920737119851
C           -4.41124507844482       -2.22731398795283        0.96246750838688
C           -4.09164314653940       -0.99987054007519        0.41926617782433
N           -2.86092921281512       -0.41642587683081        0.17142082445475
C           -3.11794677515031        0.81444364730816       -0.38273243197557
H            6.02495089196985        3.53361037518241        1.45212624726654
H            3.64537365781852        3.98637298027681        1.82166132358002
H            1.92854142727013        2.32361164095996        1.23209375308259
H            6.76731511543319        1.36695446531519        0.51842357304921
H            6.91063979336520       -1.16232003883000       -0.52598066263066
H            6.41755535143280       -3.40748017529135       -1.43837385869531
H            4.10424298804928       -4.17089199820109       -1.69996197181911
H            2.21155319160109       -2.74272127544722       -1.03299691100900
H            1.29906207635645       -2.22172565707573        1.05154958780824
H           -1.15593437472274       -2.47526547949252        1.13782853800506
H            0.94000758672901        1.66491871413703       -0.75850879991644
H           -1.48048556804651        3.48391591309816       -1.56231743058219
H           -3.80789628162477        4.13060452677433       -1.86651599676487
H           -5.70911872184691        2.74040851582407       -1.26216963937028
H           -7.23293266368755        0.23710927003151       -0.15713056246954
H           -7.78691236894771       -1.96023125329292        0.81665794978762
H           -6.02512037077525       -3.51309759663163        1.52180387552072
H           -3.64036443300709       -2.91633320451798        1.27414748044130
