  91
       -139.38390511
 C          1.8307197306       -4.3835132280        2.2263001852
 C          1.3971885115       -3.2086344080        2.8203397112
 C          0.9266572202       -2.1524078293        2.0500020394
 C          0.9173309737       -2.2939692639        0.6816032482
 C          1.3613587972       -3.4791506537        0.0734097959
 C          1.8183497161       -4.5315360275        0.8477553613
 C          1.2829346898       -3.3128817287       -1.3718646751
 C          1.6371601951       -4.1599784150       -2.4079851184
 C          1.5006844641       -3.7073296142       -3.7110262476
 C          1.0215511446       -2.4338268885       -3.9758371579
 C          0.6551236024       -1.5812785983       -2.9419436845
 C          0.7939800308       -2.0259726280       -1.6474508773
 C          0.4102617352       -1.3096626378       -0.3602367205
 C          1.0054674641        0.0649771643       -0.2167819880
 C          0.1545765703        1.2056168460       -0.1561048188
 C          0.7572078114        2.4775330802        0.0719516992
 C          2.0914514076        2.6240032736        0.2256140093
 C          2.9660858983        1.5083224747        0.1203088739
 C          4.3380707048        1.6712186759        0.2780683282
 C          5.2221477383        0.6005232357        0.1915827663
 C          6.6547638089        0.7736637553        0.4034601944
 C          7.4085304339       -0.2546479313        1.0185380738
 C          8.7441112541       -0.1098911989        1.2463199272
 C          9.4245782804        1.0683672459        0.8672616616
 C         10.8025369525        1.2488961567        1.0902658128
 C         11.4269466668        2.4054101334        0.7085643935
 C         10.6982511002        3.4299837770        0.0852251567
 C          9.3582279668        3.2851634691       -0.1433154152
 C          8.6834341106        2.1058980095        0.2416245844
 C          7.3054858476        1.9317229416        0.0270381459
 C          4.6769287639       -0.6596328718       -0.1133428000
 C          3.3332759069       -0.8430584683       -0.2789608710
 C          2.4027439426        0.2198870755       -0.1315197342
 C         -1.2500928232        1.0933767272       -0.2791760305
 C         -2.1052126951        2.2296740826       -0.3979761181
 C         -3.4610355646        2.1209255354       -0.3803223340
 C         -4.1054762177        0.8703570056       -0.2190516424
 C         -5.5176853429        0.8259219386        0.0682393322
 C         -5.9698856617        0.0692731863        1.1329210247
 C         -7.2998697185        0.1284770407        1.5885398718
 C         -7.7007235297       -0.6240606499        2.7122767155
 C         -8.9759554211       -0.5334087317        3.2015847792
 C         -9.8924701306        0.3220463634        2.5868998410
 C         -9.5258651366        1.0618083994        1.4851161768
 C         -8.2356758490        0.9829024780        0.9486998496
 C         -7.8136812128        1.7091109264       -0.2279447223
 C         -8.7062174979        2.4817143595       -0.9851223134
 C         -8.3147131651        3.1095686352       -2.1443741295
 C         -7.0124275062        2.9597574778       -2.6103843096
 C         -6.1119257526        2.2165318166       -1.8861282651
 C         -6.4717273362        1.6144775841       -0.6701998821
 C         -3.2962376037       -0.3073379521       -0.2422326657
 C         -3.8801697583       -1.5775933176       -0.3168637649
 C         -3.0969469863       -2.7171999516       -0.3498321461
 C         -1.7219172334       -2.6113381768       -0.3331742111
 C         -1.1030988920       -1.3590410209       -0.3079821108
 C         -1.8768228043       -0.1977836324       -0.2778609433
 H          2.1868128130       -5.1933275605        2.8460542417
 H          1.4235634795       -3.1132630159        3.8957431229
 H          0.5850089284       -1.2383736585        2.5131847966
 H          2.1607993470       -5.4475338542        0.3894270848
 H          2.0134925033       -5.1519910121       -2.2064823432
 H          1.7740897499       -4.3544154773       -4.5314524117
 H          0.9302590102       -2.1004607706       -4.9988517323
 H          0.2764722808       -0.5910196852       -3.1484427698
 H          0.1279867518        3.3467437717        0.1682628064
 H          2.5186719974        3.5954027873        0.4305685250
 H          4.7128850362        2.6582963963        0.5076429106
 H          6.9014590035       -1.1530550806        1.3383514475
 H          9.3045320903       -0.8981479846        1.7293419267
 H         11.3593856635        0.4562728328        1.5698717952
 H         12.4849007400        2.5374793900        0.8829324017
 H         11.2067821896        4.3358265478       -0.2111854497
 H          8.7930429646        4.0729160547       -0.6216591454
 H          6.7605444539        2.7214591001       -0.4696223418
 H          5.3406530833       -1.5003117933       -0.2533993995
 H          2.9917560479       -1.8227309554       -0.5509726759
 H         -1.6753456718        3.2123601873       -0.5001305246
 H         -4.0678959046        3.0137069758       -0.4101395133
 H         -5.2641643760       -0.5214162826        1.6991533902
 H         -6.9754043739       -1.2737045968        3.1814328559
 H         -9.2751166595       -1.1128624354        4.0625490709
 H        -10.8948861254        0.4042767751        2.9801082541
 H        -10.2592390322        1.7162123539        1.0410897486
 H         -9.7324657820        2.5795238846       -0.6693308111
 H         -9.0252074463        3.6983486885       -2.7056244951
 H         -6.7141715816        3.4172664962       -3.5421288425
 H         -5.1132208809        2.0678009816       -2.2674885075
 H         -4.9540236441       -1.6634852511       -0.3726737866
 H         -3.5628318303       -3.6902304707       -0.3986663218
 H         -1.1233182525       -3.5077427448       -0.3588246562
