91
 energy: -139.511631011300 gnorm: 0.000169773819 xtb: 6.7.1 (edcfbbe)
C            1.04515802293322       -3.98202243872400        3.13786298409532
C            0.57423985106523       -2.73019578274444        3.50340633334881
C            0.32521090143001       -1.75549994194324        2.54511461206626
C            0.56805496476575       -2.05720863951381        1.22384514488016
C            1.04985523236821       -3.32160084310776        0.84811343056735
C            1.28976847581778       -4.29018946738387        1.80832151946456
C            1.24701233362721       -3.33229733149793       -0.59587513286217
C            1.73688895994740       -4.31243023934666       -1.44221564860491
C            1.85606587136175       -4.02283931945738       -2.79323872742768
C            1.49572532997139       -2.77942691773898       -3.28913536795966
C            0.99703598342673       -1.79349475718699       -2.44624181685553
C            0.88209197152455       -2.07417465825597       -1.10348495687776
C            0.31541385197348       -1.19695855603312       -0.00300506894175
C            0.95961595701302        0.16914185589253        0.05075600976236
C            0.18166708931820        1.31620819515763        0.09167654082075
C            0.80135059368985        2.58202158736115       -0.04749716657492
C            2.14841485636448        2.70553460812413       -0.17165235204477
C            2.97796450691161        1.56723154493808       -0.10368864395595
C            4.37621922497566        1.69837572326472       -0.17076098926669
C            5.20973937182987        0.60847076458720       -0.08793810397036
C            6.67009578007418        0.74919264381789       -0.16819626859468
C            7.43074759470485       -0.19853346026755       -0.88965962600486
C            8.78747043070995       -0.08566667048922       -0.98220439257228
C            9.47271487848429        0.97741213848345       -0.35578021018988
C           10.87327880854899        1.12177163440953       -0.43060739218123
C           11.50194915372893        2.16589580674491        0.18928575127737
C           10.75794796268196        3.11318144317519        0.91153351527958
C            9.39880052841493        3.00071731023546        1.00226520240255
C            8.71917761416749        1.93508547539179        0.37326420477037
C            7.32004909025199        1.79338725567049        0.44756749937279
C            4.61962785428348       -0.65868713188385        0.09234987482428
C            3.26406417045456       -0.81301216060232        0.14931928412343
C            2.38040208661987        0.28328868553189        0.02618707286482
C           -1.27102447854457        1.24932929086155        0.23782818664571
C           -2.03197278883581        2.34882867536299        0.57956240589613
C           -3.42583306568559        2.28544617336276        0.62305449391722
C           -4.09490530496294        1.13128249589998        0.29953948926211
C           -5.57359223944594        1.11206119220532        0.30267263651576
C           -6.24391783702480        1.17386612921524        1.48179333455299
C           -7.66412209541439        1.14622207177621        1.54101938538955
C           -8.32422521881480        1.19212780275783        2.78039173177264
C           -9.69272008790749        1.15283093977848        2.85162259500188
C          -10.44099449549562        1.06556958964018        1.67654534695219
C           -9.81603411953367        1.02091800000201        0.45413143519371
C           -8.41636176580407        1.06147859524979        0.34585115615710
C           -7.71710182209437        1.02539332582129       -0.91705271020189
C           -8.38666024714460        0.97016760546181       -2.15097996609190
C           -7.70165621311439        0.94938069713077       -3.34071308942669
C           -6.30740745083658        0.98881743440158       -3.34973525438620
C           -5.62241488760925        1.04124152890297       -2.16312819426747
C           -6.30137391514823        1.05315760188910       -0.93282371799080
C           -3.35231364420090       -0.04410452557231        0.01250398149038
C           -3.99383440251111       -1.27123540757615       -0.24504569810991
C           -3.25777144751148       -2.39982247885052       -0.47295209944591
C           -1.86241093485396       -2.35497070386586       -0.41811669395926
C           -1.19634383637426       -1.17653019852380       -0.17046886214639
C           -1.93184581078979        0.01023415272334        0.02127104763651
H            1.22660416031148       -4.72620990712108        3.89994944828384
H            0.39547175648726       -2.51025301473526        4.54589327455133
H           -0.04711270803993       -0.78229033159881        2.83078318749694
H            1.66028926283645       -5.26554386078482        1.52909224986840
H            2.02055740668809       -5.28206167173770       -1.06008834942847
H            2.23796902077966       -4.77560549775903       -3.46789743727909
H            1.60033760625557       -2.57478638091855       -4.34475543049272
H            0.71143011441374       -0.82671811220193       -2.83550521137099
H            0.18757704180906        3.46674245015869       -0.09935432520067
H            2.60252038702815        3.67624918011105       -0.31134759753708
H            4.78907084820312        2.68853031722345       -0.30420595611585
H            6.91825166937741       -1.00788831422791       -1.38952267906412
H            9.35946588823408       -0.81190113753746       -1.54312389110370
H           11.44172511607889        0.38997066530840       -0.98762760402299
H           12.57581826419066        2.27002679608465        0.12869001742778
H           11.27120698043150        3.93185744846547        1.39550428775653
H            8.82230124166961        3.72765401663535        1.55738233020537
H            6.75854334493618        2.51693051857477        1.02191259396871
H            5.25669885378361       -1.52269089847681        0.21545519206246
H            2.87542625261951       -1.79870302498881        0.32433003845492
H           -1.56499145710338        3.28825204341929        0.83001982205066
H           -3.98765913260654        3.17113583524881        0.88502860110433
H           -5.69429380241793        1.22552388520928        2.41198412225196
H           -7.72982126177474        1.25653828286489        3.68118270788450
H          -10.19354813009869        1.18794529200852        3.80833221440168
H          -11.51973200119475        1.03252301587053        1.73027038891422
H          -10.42591801743407        0.95215545472792       -0.43282514621942
H           -9.46455661429346        0.94658426517153       -2.17707835797915
H           -8.24397429961304        0.90730255226758       -4.27440777088477
H           -5.77239649558309        0.98004318295626       -4.28822868335681
H           -4.54277078366924        1.07552560260880       -2.16247287460117
H           -5.07298954125844       -1.30781447626866       -0.24995421460378
H           -3.74787564374429       -3.34138323495440       -0.67387263174269
H           -1.31060552106674       -3.27200628633966       -0.56000037107397
