  61
       -105.52790871
 C         -6.4536480755       -2.8994531426        2.2190475980
 C         -5.0777697797       -3.0079912635        2.2211528746
 C         -4.3059726959       -2.1583877980        1.4436844528
 C         -4.8992966360       -1.1911238103        0.6422732455
 C         -6.2948260369       -1.0668572240        0.6736930706
 C         -7.0599621948       -1.9192770573        1.4482498101
 O         -6.9665682242       -0.0991840002       -0.0308283209
 C         -6.2238038128        0.7301627528       -0.8324927667
 C         -6.9145533798        1.6649588096       -1.5817612711
 C         -6.2335630451        2.5162779937       -2.4387144430
 C         -4.8623336014        2.4091402908       -2.5576789916
 C         -4.1650035969        1.4737456543       -1.8092942476
 C         -4.8285687199        0.6410641055       -0.9165774099
 N         -4.1525114043       -0.3076443260       -0.1433860342
 C         -2.7483119059       -0.3814211721       -0.1816980158
 C         -2.1264245056       -1.5147152181       -0.6764845589
 C         -0.7334187338       -1.6581093682       -0.7413344734
 C          0.0510093183       -0.6245606558       -0.2896582067
 C         -0.5811553705        0.5326128111        0.2246515857
 C          0.3532688553        1.4991716529        0.6674382206
 C         -0.1098273951        2.6701438829        1.2124722453
 C         -1.5006870072        2.8524268449        1.3133846725
 C         -2.4089093591        1.9165210061        0.8783497238
 C         -1.9644742551        0.7056485246        0.3019115848
 C          1.6635619357        0.9228209954        0.4090423078
 N          2.8520222989        1.4210566267        0.6437182137
 C          3.8930055478        0.6417359535        0.2961506520
 C          5.2238593587        1.1383917051        0.5331589996
 C          5.4441174856        2.3951098556        1.1108470499
 C          6.7367936194        2.8177132215        1.3173031547
 C          7.7786184902        1.9670434077        0.9379735299
 N          7.5955690582        0.7885223881        0.3952783278
 C          6.3491630714        0.3611713028        0.1869719778
 C          6.1621449616       -0.9445917248       -0.4145970518
 N          7.2456951978       -1.6536397995       -0.7349243929
 C          7.0912206224       -2.8351593882       -1.2798756034
 C          5.8460505500       -3.4086569124       -1.5508529681
 C          4.7164221231       -2.6933391364       -1.2275579392
 C          4.8567959555       -1.4279020146       -0.6442266054
 C          3.7102987557       -0.6330885136       -0.2852293010
 N          2.4862213048       -1.1405753795       -0.5185535634
 C          1.4773389718       -0.3761026624       -0.1769687942
 H         -7.0586926122       -3.5604892357        2.8189818090
 H         -4.5893260082       -3.7523533047        2.8309395974
 H         -3.2309040686       -2.2427631318        1.4699993584
 H         -8.1307263033       -1.7931318206        1.4388583833
 H         -7.9872288909        1.7070216696       -1.4820015528
 H         -6.7800461997        3.2454329277       -3.0154338284
 H         -4.3211592082        3.0488221238       -3.2375650937
 H         -3.0954349550        1.3900273394       -1.9220912144
 H         -2.7495986762       -2.3204888248       -1.0381887058
 H         -0.3002736137       -2.5589002073       -1.1471417471
 H          0.5675825293        3.4337240363        1.5618677849
 H         -1.8668664348        3.7687746289        1.7530957599
 H         -3.4671934342        2.1067517161        0.9792821259
 H          4.5906638388        2.9990315266        1.3793854568
 H          6.9480918566        3.7789807742        1.7599059383
 H          8.8113296537        2.2578560709        1.0828209321
 H          8.0067967316       -3.3619802032       -1.5170700913
 H          5.7799033832       -4.3869742947       -2.0015970921
 H          3.7224168762       -3.0734516467       -1.4083923217
