  61
  -105.141663937900       0.419828427274206      !
 C         -6.4536480755       -2.8994531426        2.2190475980
 C         -5.0777697797       -3.0079912635        2.2211528746
 C         -4.3059726959       -2.1583877980        1.4436844528
 C         -4.8992966360       -1.1911238103        0.6422732455
 C         -6.2948260369       -1.0668572240        0.6736930706
 C         -7.0599621948       -1.9192770573        1.4482498101
 O         -6.9665682242       -0.0991840002       -0.0308283209
 C         -6.2238038128        0.7301627528       -0.8324927667
 C         -6.9145533798        1.6649588096       -1.5817612711
 C         -6.2335630451        2.5162779937       -2.4387144430
 C         -4.8623336014        2.4091402908       -2.5576789916
 C         -4.1650035969        1.4737456543       -1.8092942476
 C         -4.8285687199        0.6410641055       -0.9165774099
 N         -4.1525114043       -0.3076443260       -0.1433860342
 C         -2.7483119059       -0.3814211721       -0.1816980158
 C         -2.1264245056       -1.5147152181       -0.6764845589
 C         -0.7334187338       -1.6581093682       -0.7413344734
 C          0.0510093183       -0.6245606558       -0.2896582067
 C         -0.5811553705        0.5326128111        0.2246515857
 C          0.3532688553        1.4991716529        0.6674382206
 C         -0.1098273951        2.6701438829        1.2124722453
 C         -1.5006870072        2.8524268449        1.3133846725
 C         -2.4089093591        1.9165210061        0.8783497238
 C         -1.9644742551        0.7056485246        0.3019115848
 C          1.6635619357        0.9228209954        0.4090423078
 N          2.8520222989        1.4210566267        0.6437182137
 C          3.8930055478        0.6417359535        0.2961506520
 C          5.2238593587        1.1383917051        0.5331589996
 C          5.4441174856        2.3951098556        1.1108470499
 C          6.7367936194        2.8177132215        1.3173031547
 C          7.7786184902        1.9670434077        0.9379735299
 N          7.5955690582        0.7885223881        0.3952783278
 C          6.3491630714        0.3611713028        0.1869719778
 C          6.1621449616       -0.9445917248       -0.4145970518
 N          7.2456951978       -1.6536397995       -0.7349243929
 C          7.0912206224       -2.8351593882       -1.2798756034
 C          5.8460505500       -3.4086569124       -1.5508529681
 C          4.7164221231       -2.6933391364       -1.2275579392
 C          4.8567959555       -1.4279020146       -0.6442266054
 C          3.7102987557       -0.6330885136       -0.2852293010
 N          2.4862213048       -1.1405753795       -0.5185535634
 C          1.4773389718       -0.3761026624       -0.1769687942
 H         -7.0586926122       -3.5604892357        2.8189818090
 H         -4.5893260082       -3.7523533047        2.8309395974
 H         -3.2309040686       -2.2427631318        1.4699993584
 H         -8.1307263033       -1.7931318206        1.4388583833
 H         -7.9872288909        1.7070216696       -1.4820015528
 H         -6.7800461997        3.2454329277       -3.0154338284
 H         -4.3211592082        3.0488221238       -3.2375650937
 H         -3.0954349550        1.3900273394       -1.9220912144
 H         -2.7495986762       -2.3204888248       -1.0381887058
 H         -0.3002736137       -2.5589002073       -1.1471417471
 H          0.5675825293        3.4337240363        1.5618677849
 H         -1.8668664348        3.7687746289        1.7530957599
 H         -3.4671934342        2.1067517161        0.9792821259
 H          4.5906638388        2.9990315266        1.3793854568
 H          6.9480918566        3.7789807742        1.7599059383
 H          8.8113296537        2.2578560709        1.0828209321
 H          8.0067967316       -3.3619802032       -1.5170700913
 H          5.7799033832       -4.3869742947       -2.0015970921
 H          3.7224168762       -3.0734516467       -1.4083923217
  61
  -105.141459856800       0.338284938632603      !
 C         -6.2282259948       -1.9146535658        2.9416199322
 C         -4.8496339768       -1.9681183673        2.9081649264
 C         -4.1521085818       -1.4007089967        1.8525313377
 C         -4.8269767956       -0.7628157029        0.8201200507
 C         -6.2270434900       -0.7260744275        0.8541056998
 C         -6.9165527307       -1.2953545626        1.9080539873
 O         -6.9722668725       -0.1453539069       -0.1427236466
 C         -6.2946065975        0.4040392383       -1.2036041877
 C         -7.0511038757        0.9979784053       -2.1960602906
 C         -6.4322801879        1.5931989806       -3.2861819042
 C         -5.0548984039        1.5978719791       -3.3709942167
 C         -4.2902446322        1.0024548383       -2.3790373074
 C         -4.8962405093        0.3879388176       -1.2914762972
 N         -4.1552477821       -0.1974250794       -0.2646496886
 C         -2.7466756152       -0.2538752150       -0.3318622242
 C         -2.1308267710       -1.1075656906       -1.2270130250
 C         -0.7365015636       -1.2318524308       -1.3280885480
 C          0.0478366607       -0.4547984724       -0.5113911435
 C         -0.5815583976        0.4445195574        0.3818860801
 C          0.3526578755        1.2057480172        1.1239051962
 C         -0.1128491227        2.1254641382        2.0294815304
 C         -1.5046158190        2.2687699000        2.1795909154
 C         -2.4124491924        1.5274348343        1.4615346855
 C         -1.9644276450        0.5743979431        0.5199266677
 C          1.6626966195        0.7566982732        0.6773499521
 N          2.8522501433        1.1728434393        1.0348287758
 C          3.8917559997        0.5388784914        0.4615874688
 C          5.2238242348        0.9758654256        0.7911560601
 C          5.4475337405        2.0765354494        1.6277300356
 C          6.7413971924        2.4597786023        1.8948851801
 C          7.7805921246        1.7261886203        1.3163019829
 N          7.5942154421        0.6902636388        0.5357774000
 C          6.3468436165        0.3035109514        0.2646068781
 C          6.1558145134       -0.8471109995       -0.5967176257
 N          7.2359677559       -1.4989457927       -1.0298251166
 C          7.0770390988       -2.5429471593       -1.8055893388
 C          5.8306921789       -3.0205443419       -2.2195380632
 C          4.7044685606       -2.3605345775       -1.7855236902
 C          4.8495312530       -1.2465211765       -0.9493240697
 C          3.7064675027       -0.5337635565       -0.4395621173
 N          2.4819602594       -0.9244793472       -0.8370975869
 C          1.4752136800       -0.2790574082       -0.3008557955
 H         -6.7752634754       -2.3570597935        3.7590202422
 H         -4.3022580143       -2.4576039700        3.6988434006
 H         -3.0750423197       -1.4599261334        1.8275746952
 H         -7.9936793788       -1.2473813304        1.8997233006
 H         -8.1245847513        0.9890283125       -2.0956349644
 H         -7.0315042840        2.0551380019       -4.0547421108
 H         -4.5605801671        2.0688685915       -4.2065986097
 H         -3.2132842684        1.0209216004       -2.4453446013
 H         -2.7571168866       -1.7122739681       -1.8676830847
 H         -0.3040311076       -1.9286580549       -2.0288818194
 H          0.5630608493        2.7287596479        2.6153788425
 H         -1.8700784731        2.9953997669        2.8906192279
 H         -3.4718882918        1.6727684607        1.6130775338
 H          4.5958244130        2.5985647079        2.0367973073
 H          6.9553660786        3.3054397874        2.5301754124
 H          8.8140122853        1.9959622841        1.4931486209
 H          7.9897246709       -3.0342575845       -2.1180627539
 H          5.7608611460       -3.8869668293       -2.8590218743
 H          3.7096484589       -2.6756637481       -2.0617088384
  61
  -105.140638211900       0.141801495323278      !
 C         -6.8875048275       -2.8078870620        1.9500347564
 C         -5.5335887731       -2.9986905249        2.1395917752
 C         -4.6133753528       -2.1967142194        1.4818601638
 C         -5.0346510585       -1.1949268101        0.6168703825
 C         -6.4115531114       -0.9857338542        0.4590267485
 C         -7.3244439921       -1.7922968968        1.1128852676
 O         -6.9211913776        0.0232489036       -0.3196551370
 C         -6.0281859949        0.7993412264       -1.0140851080
 C         -6.5534850734        1.7699481905       -1.8478226583
 C         -5.7133085739        2.5698204053       -2.6075422310
 C         -4.3484805623        2.3725145230       -2.5472828992
 C         -3.8171106501        1.4004227277       -1.7144612422
 C         -4.6427857045        0.6218245720       -0.9124833700
 N         -4.1369310013       -0.3586894823       -0.0508409699
 C         -2.7441448630       -0.5131801193        0.0695534083
 C         -2.1206930006       -1.6654622768       -0.3757665273
 C         -0.7274482087       -1.8255940244       -0.3843716868
 C          0.0540965717       -0.7874998959        0.0629135992
 C         -0.5831570523        0.3720736180        0.5652015184
 C          0.3446666313        1.3536184890        0.9875671894
 C         -0.1262914195        2.5291040850        1.5159370150
 C         -1.5184783550        2.7056759786        1.6106217544
 C         -2.4200516024        1.7683894670        1.1651773230
 C         -1.9661475389        0.5537448427        0.6048147287
 C          1.6564944848        0.8025314722        0.6867052073
 N          2.8361230099        1.3588023145        0.8056478840
 C          3.8766977078        0.6238678877        0.3713318943
 C          5.1899437547        1.2127963063        0.4165960960
 C          5.3937211131        2.5095482200        0.9050135076
 C          6.6652556926        3.0342422447        0.8954525607
 C          7.7029472843        2.2422683806        0.3963780062
 N          7.5357245534        1.0255924508       -0.0604824680
 C          6.3097642091        0.4995999717       -0.0600734685
 C          6.1377405670       -0.8441347209       -0.5765079582
 N          7.2167391310       -1.4959649258       -1.0127734718
 C          7.0748934359       -2.7082290382       -1.4893514661
 C          5.8482293282       -3.3729392101       -1.5688263460
 C          4.7234901102       -2.7175839785       -1.1241380857
 C          4.8501953849       -1.4199030908       -0.6129465281
 C          3.7051502205       -0.6771822013       -0.1521320812
 N          2.4900686701       -1.2437094278       -0.2683104101
 C          1.4786298738       -0.5115390738        0.1317594015
 H         -7.6072828019       -3.4320477990        2.4554986981
 H         -5.1793232844       -3.7711540586        2.8045820559
 H         -3.5580809283       -2.3435727622        1.6509858483
 H         -8.3745776135       -1.6019446282        0.9593387771
 H         -7.6250937900        1.8810677506       -1.8898374717
 H         -6.1310071583        3.3291760955       -3.2494024924
 H         -3.6819749144        2.9685921712       -3.1512367675
 H         -2.7498977832        1.2472426635       -1.6930302769
 H         -2.7376417378       -2.4613293273       -0.7687351426
 H         -0.2908044182       -2.7342742595       -0.7684254922
 H          0.5459422075        3.3026660595        1.8531357571
 H         -1.8906396988        3.6231584054        2.0427625697
 H         -3.4800282418        1.9591190861        1.2455793932
 H          4.5440923729        3.0642171501        1.2733407762
 H          6.8628889571        4.0310254224        1.2590339041
 H          8.7185896966        2.6158868416        0.3658025132
 H          7.9858995229       -3.1849509162       -1.8283375406
 H          5.7922715854       -4.3733516277       -1.9695609427
 H          3.7432463114       -3.1684709954       -1.1565842648
  61
  -105.140308965400       0.100085138769912      !
 C         -6.4999550897       -3.2306870095        1.7293009825
 C         -5.1233242812       -3.3038686254        1.8008458689
 C         -4.3367681741       -2.3329008897        1.2012296308
 C         -4.9119596163       -1.2759335787        0.5056477557
 C         -6.3101203859       -1.1809053716        0.4901773669
 C         -7.0911680565       -2.1562164306        1.0837052925
 O         -6.9727423005       -0.1238078116       -0.0791690972
 C         -6.2179600344        0.8178763766       -0.7295947375
 C         -6.9023817478        1.8481425409       -1.3492812358
 C         -6.2136548802        2.8141452487       -2.0658401760
 C         -4.8416434059        2.7187078443       -2.1885873468
 C         -4.1518607633        1.6887463299       -1.5690075729
 C         -4.8205786715        0.7477119344       -0.7947050914
 N         -4.1499320182       -0.2823049930       -0.1228503123
 C         -2.7480839675       -0.3573042282       -0.1514222282
 C         -2.1265706827       -1.4738651068       -0.6882309606
 C         -0.7358470780       -1.6316183584       -0.7363784036
 C          0.0533002011       -0.6178893898       -0.2488065519
 C         -0.5745180491        0.5353970168        0.2790924876
 C          0.3657992468        1.5021692372        0.7107094544
 C         -0.0889876256        2.6642710380        1.2807026859
 C         -1.4773125387        2.8317435397        1.4282307521
 C         -2.3911329094        1.8998261449        0.9962915087
 C         -1.9574002132        0.7071768814        0.3741829353
 C          1.6726387880        0.9349055511        0.4176665668
 N          2.8630487461        1.4604997357        0.5684708092
 C          3.8990997950        0.6713886537        0.2291239282
 C          5.2296973812        1.2163568549        0.3089377504
 C          5.4530273886        2.5593919940        0.6370838967
 C          6.7439577903        3.0337139750        0.6661705326
 C          7.7810101306        2.1456970161        0.3686116105
 N          7.5956878299        0.8835832738        0.0687584046
 C          6.3510151209        0.4055570658        0.0334657682
 C          6.1608910608       -0.9930776735       -0.2984794386
 N          7.2420804684       -1.7541836864       -0.4748551253
 C          7.0834123287       -3.0203933175       -0.7731205114
 C          5.8363819043       -3.6319758064       -0.9263166338
 C          4.7090948325       -2.8629872049       -0.7516870717
 C          4.8540002702       -1.5089761350       -0.4249979887
 C          3.7109139324       -0.6618445302       -0.2001065689
 N          2.4849616262       -1.1758178364       -0.4048921347
 C          1.4796840781       -0.3807339233       -0.1278330946
 H         -7.1163858178       -3.9901579779        2.1834236357
 H         -4.6458325512       -4.1160888996        2.3268330939
 H         -3.2636288951       -2.3960470144        1.2860789343
 H         -8.1629353628       -2.0495223499        1.0336882623
 H         -7.9766955436        1.8715806591       -1.2601213542
 H         -6.7537456262        3.6204828445       -2.5360645476
 H         -4.2932515241        3.4436480835       -2.7698936360
 H         -3.0824575163        1.6204525734       -1.6891350023
 H         -2.7502882743       -2.2551830678       -1.0992505762
 H         -0.3066657708       -2.5230164917       -1.1664800565
 H          0.5927817915        3.4287943030        1.6193731941
 H         -1.8377715193        3.7344321039        1.8997520272
 H         -3.4466143063        2.0820096854        1.1334020209
 H          4.6028230882        3.1896832156        0.8496567397
 H          6.9571615898        4.0637244676        0.9077775962
 H          8.8117180909        2.4767704996        0.3733688212
 H          7.9970916986       -3.5884406734       -0.8943602430
 H          5.7669755587       -4.6807932601       -1.1709051562
 H          3.7137633359       -3.2688121736       -0.8511983505
