  66
        -88.21928980
 C         -7.4291654082        3.0648943121       -1.4871431300
 C         -7.1553513443        2.6726872247       -0.0277628918
 C         -8.4311758595        2.0936720771        0.6010137215
 C         -6.7776174289        3.9400786343        0.7438791097
 C         -6.0615705363        1.6193031375        0.0037344346
 C         -6.2586461695        0.3984694799       -0.6434854832
 C         -5.2980556868       -0.5875397277       -0.6407499634
 C         -4.0718211186       -0.4029884725        0.0088463785
 C         -3.0493534442       -1.4391778755        0.0176883984
 C         -3.4089224339       -2.7980287026        0.0246931241
 C         -2.4734845542       -3.8088550624        0.0439374701
 C         -1.1274560271       -3.4511099734        0.0481687894
 N         -0.0073633590       -4.2358855714        0.0620864506
 C          1.1093332980       -3.4573274380        0.0579468951
 C          2.4723536548       -3.8126978708        0.0647348332
 C          3.4012617810       -2.8203632450        0.0466502810
 C          3.0636086001       -1.4171182559        0.0304615914
 C          4.0517763662       -0.4188749685        0.0133206004
 C          5.4397110571       -0.6988265148       -0.2259034168
 C          6.3830411247        0.2827415730       -0.2477818275
 C          6.0689833456        1.6404380756       -0.0252141002
 C          7.1630247914        2.6834259364       -0.0604808373
 C          6.6424466548        4.0980919671        0.2077387609
 C          8.2147575395        2.3488262455        1.0099116506
 C          7.8240763292        2.6722143572       -1.4489707248
 C          4.7162403126        1.9356013930        0.2181546276
 C          3.7527724854        0.9689652213        0.2321158738
 C          1.6507273423       -1.0892080070        0.0322418717
 C          0.7189031924       -2.0832396804        0.0402158870
 C         -0.7332715906       -2.0870785646        0.0349935165
 C         -1.6822206412       -1.0937707763        0.0241016870
 C         -3.8722518458        0.8224457954        0.6519431700
 C         -4.8433286811        1.8026297361        0.6516071360
 H         -7.7632235481        2.2110217327       -2.0701420550
 H         -6.5244524373        3.4577564793       -1.9466169148
 H         -8.2005404520        3.8310564795       -1.5314274669
 H         -8.7842733046        1.2247213660        0.0527464699
 H         -8.2400233021        1.7931172258        1.6292484535
 H         -9.2221311229        2.8409663806        0.6005771829
 H         -6.5931545767        3.7185420855        1.7926141515
 H         -5.8941228219        4.4093785270        0.3173166101
 H         -7.5964597051        4.6549574168        0.6903322320
 H         -7.1838836539        0.2108214380       -1.1683822339
 H         -5.4847234431       -1.5062740548       -1.1775061769
 H         -4.4564071995       -3.0583060340        0.0467068994
 H         -2.7733634921       -4.8464803503        0.0631786256
 H         -0.0091963043       -5.2433240610        0.0696944931
 H          2.7646419535       -4.8528160952        0.0908145839
 H          4.4418458066       -3.0979974234        0.0777961828
 H          5.7495778427       -1.7108785765       -0.4315131704
 H          7.4077211634        0.0044676026       -0.4488528047
 H          5.9136554286        4.3950280941       -0.5429173918
 H          7.4705227781        4.8034171157        0.1698338660
 H          6.1875459669        4.1666229269        1.1932478433
 H          9.0056904075        3.0961876854        1.0039274884
 H          7.7554812154        2.3382024123        1.9962719397
 H          8.6639473482        1.3756103804        0.8329590651
 H          7.0864667526        2.8959787515       -2.2169629188
 H          8.6109052221        3.4225969719       -1.4948079227
 H          8.2631327714        1.7035413132       -1.6703003385
 H          4.4153897553        2.9544638888        0.4056939118
 H          2.7393942985        1.2631546435        0.4525707913
 H          1.3339488751       -0.0615306564       -0.0104314019
 H         -1.3861937068       -0.0569866095       -0.0110872700
 H         -2.9521202564        0.9974595748        1.1901945468
 H         -4.6352322770        2.7219328393        1.1752090791
  66
        -88.21925140
 C         -6.4705381675        3.9595608881       -0.6827488140
 C         -7.0923907675        2.7045226094       -0.0532528348
 C         -8.3447024229        2.3407035945       -0.8553707048
 C         -7.5197328768        3.0063043641        1.3904343067
 C         -6.0594648505        1.5907234741       -0.0416019860
 C         -6.2491896861        0.3669832016       -0.6771320510
 C         -5.2857638232       -0.6202805091       -0.6421806019
 C         -4.0727225607       -0.4317432163        0.0261647560
 C         -3.0498581484       -1.4679321549        0.0576872421
 C         -3.4081421898       -2.8262013850        0.0837163707
 C         -2.4710378267       -3.8355543992        0.1198368419
 C         -1.1258029552       -3.4756901694        0.1192049565
 N         -0.0043418516       -4.2587299543        0.1426123391
 C          1.1113164856       -3.4787093571        0.1250819338
 C          2.4750745227       -3.8304111519        0.1423373399
 C          3.4018326080       -2.8360286460        0.1268629473
 C          3.0614987430       -1.4334925815        0.0785802869
 C          4.0475103265       -0.4342086538        0.0431108762
 C          5.4396343262       -0.7014841339        0.2766919418
 C          6.3912912976        0.2746558888        0.2201510945
 C          6.0754203536        1.6118951853       -0.0799234343
 C          7.1044649301        2.7149791347       -0.1796210561
 C          8.5278496371        2.2251218680        0.1002857921
 C          7.0707906039        3.3016081511       -1.6008535642
 C          6.7692319030        3.8183842748        0.8370199269
 C          4.7117222717        1.8978271887       -0.3016316117
 C          3.7444818092        0.9415830128       -0.2380577531
 C          1.6477179217       -1.1098199475        0.0579171353
 C          0.7184047230       -2.1055251215        0.0862267465
 C         -0.7334891490       -2.1116097800        0.0872832530
 C         -1.6839073523       -1.1199055745        0.0629046595
 C         -3.8812923343        0.7995389766        0.6632303802
 C         -4.8512077955        1.7760869850        0.6315987451
 H         -5.6170873241        4.3097116964       -0.1088172308
 H         -7.2048488170        4.7614958515       -0.7242336654
 H         -6.1352606805        3.7449586677       -1.6954651515
 H         -8.0978786294        2.1396974593       -1.8954519964
 H         -8.8424029740        1.4711211207       -0.4321436587
 H         -9.0455000221        3.1730996363       -0.8309885874
 H         -7.9549150110        2.1195397848        1.8467656528
 H         -6.6738483373        3.3197277541        1.9961876937
 H         -8.2620113642        3.8016461154        1.4031642623
 H         -7.1596911134        0.1674727927       -1.2192061413
 H         -5.4636081821       -1.5451332400       -1.1716104163
 H         -4.4554881168       -3.0870462573        0.1068736600
 H         -2.7694521702       -4.8731696918        0.1533971313
 H         -0.0047347954       -5.2658953249        0.1681251506
 H          2.7700781450       -4.8698711550        0.1633430027
 H          4.4429381234       -3.1128098585        0.1180840334
 H          5.7506018176       -1.6996766706        0.5400930912
 H          7.4146655411       -0.0024302817        0.4194716277
 H          8.6117186386        1.8228475308        1.1073335996
 H          9.2228875162        3.0580607449        0.0119905811
 H          8.8262183784        1.4616569230       -0.6145563032
 H          7.2933027502        2.5265462283       -2.3314022612
 H          6.0946503607        3.7179860382       -1.8333197369
 H          7.8120216873        4.0923730011       -1.6976410693
 H          6.7783934835        3.4133858480        1.8468477670
 H          7.5053245279        4.6176330630        0.7775374961
 H          5.7876519184        4.2446027313        0.6500051610
 H          4.4163565637        2.9108440659       -0.5349583310
 H          2.7261298700        1.2293695716       -0.4433916726
 H          1.3277065944       -0.0822160882        0.0511700858
 H         -1.3904687647       -0.0828649377        0.0160693661
 H         -2.9711452934        0.9774628698        1.2172859814
 H         -4.6600470101        2.7049434046        1.1488655089
  66
        -88.21920520
 C         -7.4387135575        2.9789334678       -1.6193450064
 C         -7.1477908419        2.6739069206       -0.1425706352
 C         -8.4179605827        2.1410739035        0.5361145562
 C         -6.7528085485        3.9840942948        0.5441644830
 C         -6.0598746462        1.6171861936       -0.0590128892
 C         -6.2605538038        0.3697427623       -0.6526014505
 C         -5.3028053123       -0.6176601534       -0.6076515839
 C         -4.0757975306       -0.4096462040        0.0346070668
 C         -3.0524494589       -1.4428791085        0.0747064049
 C         -3.4086951636       -2.8026094420        0.1138623672
 C         -2.4710102256       -3.8104700302        0.1450816568
 C         -1.1253944062       -3.4497337524        0.1287685275
 N         -0.0040761813       -4.2321300193        0.1381290745
 C          1.1112704209       -3.4525976486        0.1084566194
 C          2.4741894386       -3.8088935156        0.0893848260
 C          3.4023916694       -2.8164320250        0.0458254078
 C          3.0617632692       -1.4153645187        0.0385176533
 C          4.0506257576       -0.4164142844        0.0173738681
 C          5.4212709852       -0.6859563686       -0.3089617970
 C          6.3649077629        0.2958134356       -0.3313313143
 C          6.0676810600        1.6383189151       -0.0146160754
 C          7.1599968535        2.6831375840       -0.0583648068
 C          8.3057359414        2.2665818252        0.8783169926
 C          7.6896185839        2.7877716682       -1.4983884930
 C          6.6721691055        4.0685607008        0.3744214403
 C          4.7305249811        1.9215713210        0.3138996360
 C          3.7648631030        0.9565316853        0.3216550595
 C          1.6504287407       -1.0851453524        0.0581352442
 C          0.7185461805       -2.0790581590        0.0830982110
 C         -0.7338807460       -2.0850599106        0.0920861028
 C         -1.6849975418       -1.0944978480        0.0692519156
 C         -3.8762338334        0.8397488492        0.6312148070
 C         -4.8440927549        1.8218193648        0.5875706906
 H         -8.1993933506        3.7528111208       -1.6997591197
 H         -7.7948103327        2.0967212399       -2.1438463797
 H         -6.5357504790        3.3288134973       -2.1154836471
 H         -8.7783709759        1.2395562649        0.0484338373
 H         -8.2163646437        1.9066875821        1.5793951762
 H         -9.2069976187        2.8893427037        0.4960477620
 H         -6.5638879796        3.8293399828        1.6040128571
 H         -5.8671067698        4.4151345909        0.0828588506
 H         -7.5647038075        4.7028525276        0.4496590851
 H         -7.1858460600        0.1626939011       -1.1702177921
 H         -5.4913031357       -1.5567544310       -1.1072014469
 H         -4.4552271037       -3.0648023532        0.1497420865
 H         -2.7677532988       -4.8482758547        0.1871180507
 H         -0.0043677667       -5.2394711826        0.1560307456
 H          2.7660860388       -4.8489950737        0.1163652614
 H          4.4445951746       -3.0901029463        0.0594118442
 H          5.7114920646       -1.6854419315       -0.5920835092
 H          7.3746720064        0.0304883289       -0.6099110363
 H          7.9385598240        2.1628472478        1.8972556815
 H          9.0896084040        3.0213419071        0.8679419269
 H          8.7430461032        1.3193361591        0.5755896318
 H          8.0939258965        1.8385792865       -1.8393499331
 H          6.8866538836        3.0780044992       -2.1729193657
 H          8.4773729736        3.5363567990       -1.5546098934
 H          6.2922769011        4.0468546097        1.3934016057
 H          7.5008611825        4.7732335409        0.3387167068
 H          5.8921456954        4.4348850323       -0.2890281273
 H          4.4443454633        2.9283680366        0.5749971768
 H          2.7646427023        1.2342212829        0.6133168260
 H          1.3376129433       -0.0563466496        0.0061621509
 H         -1.3917570202       -0.0579267680        0.0127196672
 H         -2.9581148412        1.0334582951        1.1664266550
 H         -4.6351903101        2.7607798703        1.0747510457
  66
        -88.21914382
 C         -6.8358579015        3.8502623231        0.9983732144
 C         -7.1487052746        2.6749923689        0.0680972561
 C         -7.3111541693        3.2204817480       -1.3581092815
 C         -8.4667244347        2.0391367197        0.5332995512
 C         -6.0550438351        1.6202624518        0.0684386094
 C         -6.2183141389        0.4550512889       -0.6813353497
 C         -5.2579911372       -0.5319480479       -0.7057933940
 C         -4.0665323696       -0.3974297106        0.0131873183
 C         -3.0451850095       -1.4379180893        0.0010017169
 C         -3.4099052798       -2.7930637727       -0.0390164068
 C         -2.4767387600       -3.8075597182       -0.0257844953
 C         -1.1312796095       -3.4534734839        0.0145098544
 N         -0.0127098862       -4.2419022790        0.0328202697
 C          1.1054731455       -3.4650069689        0.0598336837
 C          2.4681412554       -3.8191055028        0.0923045124
 C          3.3972448694       -2.8271902655        0.1008531945
 C          3.0637127506       -1.4207083016        0.0719684938
 C          4.0495287324       -0.4233592938        0.0334012025
 C          5.4570945265       -0.7114988867       -0.0326541639
 C          6.3974985071        0.2703610719       -0.0932787728
 C          6.0638902597        1.6420925657       -0.0935286456
 C          7.1547811016        2.6852955641       -0.1684851362
 C          7.9720393959        2.4733289655       -1.4533866743
 C          6.6071332692        4.1151046968       -0.1840084351
 C          8.0755753728        2.5366224955        1.0539627863
 C          4.6937163029        1.9484589594       -0.0151943000
 C          3.7343741438        0.9805549669        0.0452443562
 C          1.6486487471       -1.0961660834        0.0684271088
 C          0.7175698413       -2.0903885246        0.0587658798
 C         -0.7336690596       -2.0911295265        0.0380192468
 C         -1.6806327691       -1.0948865751        0.0397008536
 C         -3.8950296683        0.7754544683        0.7515859387
 C         -4.8680418337        1.7539316330        0.7821654525
 H         -5.9339105731        4.3703929118        0.6846753152
 H         -6.7144277564        3.5130114636        2.0252156655
 H         -7.6584494313        4.5622743290        0.9730502902
 H         -8.0884969018        3.9815515706       -1.3834764655
 H         -6.3788716390        3.6669869131       -1.6979851728
 H         -7.5828469565        2.4308901129       -2.0533475539
 H         -8.7852053533        1.2467505543       -0.1380532266
 H         -8.3489119473        1.6160316341        1.5288524765
 H         -9.2531989699        2.7903587205        0.5679946810
 H         -7.1153231716        0.3118419686       -1.2658454337
 H         -5.4164080202       -1.4098413965       -1.3153005384
 H         -4.4590334731       -3.0482384922       -0.0477464198
 H         -2.7796246114       -4.8444128039       -0.0392527082
 H         -0.0166913585       -5.2492092117        0.0225786283
 H          2.7608893995       -4.8592389680        0.1142372647
 H          4.4356653572       -3.1103174365        0.1361301205
 H          5.7918408892       -1.7359491817       -0.0454629170
 H          7.4374309852       -0.0190169327       -0.1449694373
 H          8.4367077439        1.4914705225       -1.4704191445
 H          8.7570584980        3.2232898796       -1.5249012045
 H          7.3282789764        2.5609444387       -2.3260408120
 H          7.4334749253        4.8203993624       -0.2480330411
 H          5.9603348077        4.2756561058       -1.0435335014
 H          6.0512820097        4.3310723948        0.7254086655
 H          8.5382773045        1.5539215628        1.0822505804
 H          8.8643165290        3.2854486076        1.0224811410
 H          7.5055738383        2.6714887023        1.9707843984
 H          4.3752889702        2.9789985250       -0.0019791420
 H          2.7055375379        1.2936876202        0.1112047919
 H          1.3252919194       -0.0700774601        0.0588886472
 H         -1.3840653391       -0.0574956733        0.0414179714
 H         -2.9975404330        0.9076430477        1.3383478094
 H         -4.6845551150        2.6325435489        1.3795346907
  66
        -88.21867765
 C         -7.6119516172        3.0752851318       -1.4373767830
 C         -7.3632873427        2.5388184568       -0.0204946867
 C         -8.6080472903        1.7858687425        0.4732490562
 C         -7.1314608194        3.7318223406        0.9105856943
 C         -6.1866391547        1.5777888170       -0.0476275571
 C         -6.2696425122        0.4121234521       -0.8102493304
 C         -5.2529838661       -0.5155389600       -0.8268896544
 C         -4.0828099082       -0.3201036446       -0.0853694465
 C         -3.0387471417       -1.3372616626       -0.0486953755
 C         -3.4012532732       -2.6945084135       -0.0532055688
 C         -2.4682164357       -3.7048096284        0.0114799785
 C         -1.1253396968       -3.3438257717        0.0670559143
 N         -0.0124424292       -4.1350663521        0.1315297469
 C          1.1072008164       -3.3630695059        0.1600008510
 C          2.4634218573       -3.7368130546        0.2275968010
 C          3.4036085739       -2.7567843654        0.2433216087
 C          3.0828593854       -1.3508888543        0.1729344763
 C          4.0932501728       -0.3767610308        0.1461281712
 C          5.4642801889       -0.6731708105        0.4587197517
 C          6.4473241682        0.2627578279        0.3623023789
 C          6.1934121628        1.5863471662       -0.0573189004
 C          7.3390245066        2.5634663329       -0.1930186058
 C          8.0206495321        2.7417885050        1.1737728242
 C          8.3567858637        2.0037722043       -1.2011674698
 C          6.8887850679        3.9410599321       -0.6862736767
 C          4.8509094886        1.9088409779       -0.3271772768
 C          3.8466249079        0.9906274983       -0.2201658995
 C          1.6744618065       -1.0035528960        0.1072343519
 C          0.7283527268       -1.9857790234        0.1095354086
 C         -0.7249287996       -1.9810046062        0.0598389925
 C         -1.6758293087       -0.9873937457        0.0132612242
 C         -3.9789910785        0.8674069083        0.6418782179
 C         -5.0094124117        1.7867877402        0.6646857469
 H         -7.8176322102        2.2681014854       -2.1352684245
 H         -6.7383493187        3.6181766799       -1.7926338703
 H         -8.4639332371        3.7524762592       -1.4375399128
 H         -8.8725761803        0.9730748377       -0.1973140272
 H         -8.4264377790        1.3670152772        1.4610446551
 H         -9.4568553053        2.4639365560        0.5360755920
 H         -6.9658250231        3.4012223963        1.9334685076
 H         -6.2799854529        4.3247586794        0.5849149122
 H         -8.0099596463        4.3742728941        0.9025812280
 H         -7.1505123499        0.2180870542       -1.4045921921
 H         -5.3520738891       -1.3983399763       -1.4419757713
 H         -4.4496828456       -2.9510405351       -0.0732869182
 H         -2.7665719382       -4.7428277285        0.0258399820
 H         -0.0212510677       -5.1421708757        0.1527946087
 H          2.7396461567       -4.7810371984        0.2589561539
 H          4.4409255534       -3.0462202885        0.2664838284
 H          5.7252987144       -1.6554797505        0.8190457974
 H          7.4562017246       -0.0242944989        0.6222500388
 H          7.3095836708        3.1299797892        1.9000926655
 H          8.8485608176        3.4430874617        1.0898850582
 H          8.4092062025        1.7987550333        1.5481465100
 H          9.1854590307        2.6986824334       -1.3221563336
 H          8.7577503520        1.0496121663       -0.8708855362
 H          7.8832062591        1.8571460369       -2.1697152680
 H          6.1936974331        4.3994117667        0.0133989308
 H          7.7539371218        4.5951330455       -0.7775741909
 H          6.4161258552        3.8699590173       -1.6632387485
 H          4.5929935598        2.9103511204       -0.6344107050
 H          2.8429528018        1.2975077641       -0.4670244545
 H          1.3760126179        0.0307362427        0.0898467964
 H         -1.3848754472        0.0517948984       -0.0035011470
 H         -3.0933879303        1.0534815167        1.2323722076
 H         -4.8830357187        2.6753018172        1.2625608736
  66
        -88.21844044
 C         -7.9057178236        2.7183109109       -1.2686446769
 C         -7.0925101797        2.7136803286        0.0326089711
 C         -8.0314304117        2.4258704746        1.2137927455
 C         -6.4801203388        4.1093138031        0.2061309670
 C         -6.0248265697        1.6320932260        0.0140978687
 C         -6.2314080475        0.4210450470       -0.6450830684
 C         -5.2811750790       -0.5772758474       -0.6409847764
 C         -4.0629743913       -0.4181850579        0.0273098419
 C         -3.0454310979       -1.4598051817        0.0169306335
 C         -3.4087703022       -2.8169311927       -0.0079625672
 C         -2.4754422211       -3.8302188569       -0.0248815041
 C         -1.1287284527       -3.4755167815       -0.0269074831
 N         -0.0099785869       -4.2623863829       -0.0544354162
 C          1.1083380108       -3.4859012142       -0.0514899938
 C          2.4708359229       -3.8419814625       -0.0851231637
 C          3.4007882658       -2.8503182529       -0.0863799640
 C          3.0649619230       -1.4469353576       -0.0421119843
 C          4.0528205331       -0.4487530437       -0.0320287957
 C          5.4379783265       -0.7168098423       -0.3016220501
 C          6.3866613459        0.2639818333       -0.2957681108
 C          6.0750040682        1.6058361712       -0.0116758777
 C          7.0992994569        2.7175679549        0.0154134923
 C          6.6961364980        3.8036168577       -0.9950132384
 C          7.1427125217        3.3240626275        1.4278679945
 C          8.5079042551        2.2352854754       -0.3410890642
 C          4.7208597203        1.8885802355        0.2652540201
 C          3.7560153722        0.9279958059        0.2506654671
 C          1.6526622205       -1.1184367599       -0.0074476164
 C          0.7201245354       -2.1114157209       -0.0176990842
 C         -0.7316286167       -2.1126935383       -0.0027776091
 C         -1.6781101628       -1.1173031280        0.0244498257
 C         -3.8628175857        0.7893308075        0.7040067900
 C         -4.8213756305        1.7799522865        0.7015415623
 H         -7.2447044188        2.7658002669       -2.1312991727
 H         -8.5622876166        3.5856882426       -1.2905049856
 H         -8.5304057395        1.8335898186       -1.3547531451
 H         -8.4916174109        1.4461374139        1.1044747234
 H         -7.4785079442        2.4393149534        2.1507415315
 H         -8.8181910889        3.1761131364        1.2632466011
 H         -6.0519380890        4.2387666044        1.1963922784
 H         -5.7048393239        4.2813949816       -0.5373221859
 H         -7.2501517771        4.8678057122        0.0811534198
 H         -7.1498795598        0.2456334868       -1.1830004387
 H         -5.4717099279       -1.4859716830       -1.1934238428
 H         -4.4568532300       -3.0746594852        0.0159343449
 H         -2.7777701112       -4.8672597813       -0.0308405016
 H         -0.0139849954       -5.2695189791       -0.0804404941
 H          2.7622606115       -4.8825178137       -0.1034529970
 H          4.4413800219       -3.1295325335       -0.0882668846
 H          5.7439916387       -1.7191480350       -0.5552191327
 H          7.4041929020       -0.0129887647       -0.5231296506
 H          6.6434727456        3.3829531470       -1.9971646652
 H          7.4310693833        4.6060222932       -0.9943328181
 H          5.7265298292        4.2300280932       -0.7536784712
 H          6.1761793191        3.7306092290        1.7124314148
 H          7.4194833305        2.5628110530        2.1542829596
 H          7.8772064139        4.1259434480        1.4690444729
 H          8.5336691907        1.8119150912       -1.3426175821
 H          9.1979574968        3.0764343680       -0.3133034583
 H          8.8580672784        1.4904211330        0.3697588904
 H          4.4313187488        2.9023355410        0.5026623754
 H          2.7460301404        1.2122888759        0.4980844847
 H          1.3362435129       -0.0897607323       -0.0117417992
 H         -1.3805807432       -0.0803062826        0.0172920980
 H         -2.9534758058        0.9393208856        1.2676900315
 H         -4.6185516059        2.6836453073        1.2544920371
  66
        -88.21840659
 C         -6.0179842639        4.0161713191       -0.7637414200
 C         -6.8099277921        2.8378401990       -0.1768428791
 C         -8.0192699484        2.5805565787       -1.0793444228
 C         -7.3242259384        3.2056456651        1.2222039619
 C         -5.8876796585        1.6353314865       -0.0743716084
 C         -6.1175642967        0.4325959843       -0.7363194677
 C         -5.2261943641       -0.6187108285       -0.6539176726
 C         -4.0482757579       -0.5148208130        0.0898174845
 C         -3.0518141853       -1.5759377948        0.1156855569
 C         -3.4082654522       -2.9330380007        0.0556701812
 C         -2.4704643782       -3.9448766327        0.0633310133
 C         -1.1241610354       -3.5894488356        0.1188655618
 N          0.0057617776       -4.3638721362        0.1174323132
 C          1.1166304585       -3.5745836014        0.1595759956
 C          2.4878967617       -3.9010712365        0.1532575953
 C          3.3982418554       -2.8896211133        0.1665858421
 C          3.0333387428       -1.4934109055        0.2029988208
 C          3.9843189761       -0.4610672986        0.1817847018
 C          5.3626836258       -0.6667355434       -0.1614003696
 C          6.2343905612        0.3717329570       -0.2908272394
 C          5.8544602246        1.7133869474       -0.0669162413
 C          6.8486517776        2.8309364946       -0.2856061942
 C          8.0636088463        2.6264030104        0.6331311707
 C          7.3050417600        2.8057347342       -1.7541275900
 C          6.2576581048        4.2135961902        0.0044502231
 C          4.5281654561        1.9263927328        0.3475566920
 C          3.6345210584        0.9032194006        0.4674351793
 C          1.6166550306       -1.1949549937        0.2308134371
 C          0.7078780188       -2.2068464237        0.1970260909
 C         -0.7401360770       -2.2249489505        0.1720542003
 C         -1.6868241015       -1.2322040384        0.1770153943
 C         -3.8348540914        0.6826092608        0.7833608655
 C         -4.7323039825        1.7220934484        0.7034836120
 H         -5.6291923473        3.7550778809       -1.7460444684
 H         -5.1795296050        4.2858231904       -0.1274997230
 H         -6.6615619355        4.8874978452       -0.8669462758
 H         -8.6378203156        3.4750735293       -1.1209637874
 H         -7.7059365264        2.3415746296       -2.0930569892
 H         -8.6298328649        1.7674566192       -0.6934846771
 H         -7.8736337816        2.3707807936        1.6523170589
 H         -6.5062027588        3.4555176466        1.8920758405
 H         -7.9900342944        4.0643107062        1.1629949815
 H         -6.9996418061        0.3029687390       -1.3428895045
 H         -5.4264637495       -1.5229744662       -1.2104058211
 H         -4.4558307643       -3.1939460332        0.0287199917
 H         -2.7719049709       -4.9817237617        0.0289855656
 H          0.0140480946       -5.3706284512        0.0785465692
 H          2.8029134287       -4.9348405138        0.1407044266
 H          4.4455951997       -3.1442989547        0.1817539864
 H          5.7123323462       -1.6651257156       -0.3720792104
 H          7.2517740886        0.1545621594       -0.5833217110
 H          7.7497595492        2.6257155533        1.6749503020
 H          8.7816482875        3.4310815656        0.4878837479
 H          8.5619648325        1.6834449244        0.4266904797
 H          8.0126412328        3.6110278179       -1.9409251521
 H          7.7855155507        1.8634804841       -2.0023925613
 H          6.4494882441        2.9360922701       -2.4137848646
 H          5.9462741863        4.2961812430        1.0432736476
 H          7.0103691803        4.9771898842       -0.1821585899
 H          5.4056697128        4.4172507570       -0.6401738696
 H          4.1933802224        2.9237101753        0.5857523266
 H          2.6437816749        1.1294765574        0.8271055332
 H          1.2768394414       -0.1740424676        0.2215890499
 H         -1.3883461365       -0.1958197421        0.1860263099
 H         -2.9619823867        0.7860379576        1.4112702424
 H         -4.5220200668        2.6246718534        1.2583471665
  66
        -88.21774332
 C         -6.6236462231        3.3850875270       -1.5820310427
 C         -6.7354792282        2.8738488094       -0.1376510800
 C         -8.1825450821        2.4552321271        0.1549370002
 C         -6.3734203664        4.0254709854        0.8045923798
 C         -5.8123585393        1.6775706003        0.0183573851
 C         -6.0264965891        0.5289938363       -0.7451237718
 C         -5.1729194329       -0.5511077833       -0.6877380033
 C         -4.0405368834       -0.5291923269        0.1315081139
 C         -3.0538273573       -1.6004228610        0.1157905975
 C         -3.4117131689       -2.9478377219       -0.0454899280
 C         -2.4743198198       -3.9597291506       -0.0961226647
 C         -1.1283520894       -3.6109030112       -0.0029600981
 N          0.0025414747       -4.3821522515       -0.0645659927
 C          1.1132935758       -3.5966116824        0.0295977074
 C          2.4852079688       -3.9180136090       -0.0217826385
 C          3.3932826646       -2.9063781292        0.0403516707
 C          3.0251232063       -1.5171641719        0.1777852578
 C          3.9706981101       -0.4800942590        0.1844976818
 C          5.3236860764       -0.6480478056       -0.2631201649
 C          6.1820945589        0.4043765028       -0.3655748894
 C          5.8168581753        1.7193920712       -0.0015937899
 C          6.7887100893        2.8603247171       -0.1996954175
 C          6.2492098949        4.1951383093        0.3223532944
 C          8.1053754169        2.5595692690        0.5331114465
 C          7.0622183749        3.0090764839       -1.7061767425
 C          4.5185709312        1.8890285405        0.5110960269
 C          3.6350548642        0.8540868384        0.5996765748
 C          1.6097510118       -1.2263476786        0.2669347349
 C          0.7031074907       -2.2362285898        0.1735443076
 C         -0.7444448995       -2.2545187483        0.1535754233
 C         -1.6904745566       -1.2638510227        0.2233552804
 C         -3.8491792625        0.6033616729        0.9282060955
 C         -4.7159007057        1.6744965368        0.8754897704
 H         -6.9277880015        2.6234503781       -2.2947653379
 H         -5.5951799701        3.6646324792       -1.8017812538
 H         -7.2567424960        4.2587044763       -1.7228135633
 H         -8.5192842578        1.6826333435       -0.5304018856
 H         -8.2645057668        2.0711330694        1.1696322239
 H         -8.8469422897        3.3111432303        0.0545245926
 H         -6.4429482603        3.7162260227        1.8450738884
 H         -5.3685054836        4.3916219655        0.6074548604
 H         -7.0660203398        4.8509130250        0.6517238987
 H         -6.8704964986        0.4796892534       -1.4175220106
 H         -5.3557842872       -1.4075401796       -1.3207599255
 H         -4.4593428621       -3.2025622340       -0.1095315999
 H         -2.7761019118       -4.9908960233       -0.2088758090
 H          0.0118229949       -5.3830046332       -0.1798498980
 H          2.8020277642       -4.9476189498       -0.1088216995
 H          4.4420808310       -3.1554696643        0.0196635825
 H          5.6565414003       -1.6229015923       -0.5834320620
 H          7.1756108555        0.2207268280       -0.7486387067
 H          5.3418412643        4.4839696728       -0.2028631125
 H          6.9911302832        4.9750654241        0.1619812812
 H          6.0418909457        4.1415472268        1.3887786691
 H          8.7978337157        3.3900683772        0.4109608206
 H          7.9192315535        2.4171766656        1.5955790106
 H          8.5806980141        1.6627304401        0.1463984433
 H          6.1358754193        3.2239294823       -2.2350714968
 H          7.7598793857        3.8251441189       -1.8830506470
 H          7.4861158205        2.0981704339       -2.1199367999
 H          4.1984126978        2.8611071947        0.8517031392
 H          2.6668618331        1.0415997733        1.0355352586
 H          1.2692457168       -0.2079977244        0.3381776170
 H         -1.3934369882       -0.2309513350        0.3138898804
 H         -3.0154206088        0.6346231601        1.6145937617
 H         -4.5179333780        2.5188044410        1.5159614684
  66
        -88.21740624
 C         -6.5560674546        3.3996429775       -1.5950225595
 C         -6.6809209628        2.8976193755       -0.1484736339
 C         -8.1345273190        2.4995802254        0.1403204610
 C         -6.3068888518        4.0496875716        0.7885217055
 C         -5.7752499142        1.6895358238        0.0185919354
 C         -5.9968659635        0.5429385584       -0.7457557776
 C         -5.1557543439       -0.5465332038       -0.6818046304
 C         -4.0295204957       -0.5368424571        0.1460139805
 C         -3.0488954828       -1.6138155093        0.1288422513
 C         -3.4099049711       -2.9585711408       -0.0468672816
 C         -2.4750493746       -3.9724967912       -0.1093248138
 C         -1.1280041720       -3.6284852452       -0.0134451325
 N          0.0023213132       -4.4001278709       -0.0875777302
 C          1.1143771774       -3.6168463055        0.0149518020
 C          2.4865878138       -3.9356138981       -0.0458888637
 C          3.3943466805       -2.9242077656        0.0291160600
 C          3.0256322518       -1.5377178317        0.1910535343
 C          3.9661970100       -0.4967150080        0.2100710381
 C          5.3174117300       -0.6472625322       -0.2493886629
 C          6.1595290531        0.4173414799       -0.3613619263
 C          5.7796612937        1.7274170918        0.0065637715
 C          6.7266343090        2.8849079833       -0.2139044689
 C          6.1732873647        4.2113149237        0.3152105121
 C          8.0639207187        2.6114440455        0.4916354071
 C          6.9650800340        3.0336800554       -1.7263946610
 C          4.4893974602        1.8768035891        0.5451845364
 C          3.6220700679        0.8295950970        0.6441939375
 C          1.6104588998       -1.2499361149        0.2878223816
 C          0.7048310602       -2.2588583989        0.1805462460
 C         -0.7421363661       -2.2752623360        0.1619205285
 C         -1.6851038693       -1.2827453183        0.2431950498
 C         -3.8339338304        0.5919677885        0.9469431793
 C         -4.6878515840        1.6730208433        0.8869390261
 H         -6.8664820713        2.6380850221       -2.3051590122
 H         -5.5231201215        3.6651646209       -1.8114700716
 H         -7.1776804099        4.2803291246       -1.7432798387
 H         -8.4792880048        1.7302135257       -0.5447323466
 H         -8.2249551866        2.1185797641        1.1554851231
 H         -8.7868425491        3.3642714736        0.0360792955
 H         -6.3867725932        3.7484867054        1.8305932194
 H         -5.2954513240        4.3993179628        0.5945582711
 H         -6.9862061601        4.8843812060        0.6265196312
 H         -6.8365400754        0.5028370424       -1.4241411352
 H         -5.3429467459       -1.4009545254       -1.3162532163
 H         -4.4581520380       -3.2099277439       -0.1142018635
 H         -2.7800280458       -5.0013072977       -0.2343735658
 H          0.0102851135       -5.3987604738       -0.2206798141
 H          2.8043943451       -4.9632637573       -0.1512163792
 H          4.4433857750       -3.1717952289       -0.0005343882
 H          5.6600287612       -1.6179289365       -0.5721398594
 H          7.1511943270        0.2481868028       -0.7556213325
 H          5.2491401773        4.4805188023       -0.1909031278
 H          6.8963924871        5.0046092950        0.1355810231
 H          5.9906768286        4.1580157222        1.3862085457
 H          7.9027380055        2.4674125337        1.5579529566
 H          8.5486067480        1.7233908440        0.0964004194
 H          8.7373341250        3.4550408228        0.3538988148
 H          6.0232166680        3.2271192903       -2.2359245790
 H          7.6414989442        3.8635862962       -1.9208327418
 H          7.3989796373        2.1300244469       -2.1458524160
 H          4.1630912892        2.8422215416        0.8987246299
 H          2.6607048378        1.0006291574        1.1013197559
 H          1.2685902535       -0.2333197850        0.3740918064
 H         -1.3844385085       -0.2520303320        0.3453851385
 H         -3.0058048610        0.6138034805        1.6405089905
 H         -4.4847468818        2.5157747930        1.5278708555
