80
 energy: -123.108414639192 gnorm: 0.000046626462 xtb: 6.7.1 (edcfbbe)
C            7.89729980372122        2.27569101562546       -1.98996078662437
C            8.17865560980455        1.50592165210728       -0.87163172118578
C            7.17319387537600        0.80706247599788       -0.23251840432751
C            5.86344469517656        0.86628910891194       -0.71208683910810
N            4.84073858896435        0.15881302257566       -0.07160968454969
C            5.09676759475411       -1.11503912632708        0.44510436451843
C            5.95038685158219       -1.99214671250238       -0.22733123649051
C            6.20390553933796       -3.24770560368595        0.28956966498250
C            5.60968021592084       -3.65186059737864        1.47498616266668
C            4.75930695660404       -2.78581079935299        2.14521856980370
C            4.50344269110450       -1.52595316435991        1.64046936151798
C            3.56814519064362        0.71846764927469        0.03987499188995
C            3.43577924398695        2.10824597738041        0.24937197599021
C            2.19269294053798        2.69742343468080        0.36163793046521
C            1.06410156561110        1.90227683834353        0.26331201386799
C            1.18002077575951        0.47055163751994        0.04915009155170
C            2.43919811804192       -0.09548950277387       -0.05750671389765
C           -0.15206181266367       -0.06941066221606       -0.00182939007716
C           -0.86442428220600       -1.27014807685715       -0.16268396041435
C           -2.26924756335737       -1.20545732351230       -0.11598595268368
N           -2.97962918156487       -2.40546908083475       -0.27117780687292
C           -2.50624899520936       -3.57697536901830        0.32136603910259
C           -1.88311720496649       -3.53219381725983        1.57093683964635
C           -1.41031935707003       -4.69155122680209        2.15327737701312
C           -1.55240457914719       -5.91057002985031        1.50798362979367
C           -2.17174946200085       -5.96147579465203        0.26874089376921
C           -2.64418878993725       -4.80745934382753       -0.32529223236327
C           -4.15827270184481       -2.42455350909372       -1.01766426351985
C           -5.22818442037534       -3.23869707129950       -0.63849547956634
C           -6.39166819189053       -3.24855079112116       -1.38271846887472
C           -6.51237567517046       -2.44791234376875       -2.50813120471990
C           -5.45525572212248       -1.63467004230633       -2.88707341919300
C           -4.28512675672611       -1.62145485359421       -2.15402065624002
C           -3.02611951240117       -0.02767714690067        0.07550632400771
C           -2.34299946746962        1.19137907534944        0.22576056312295
C           -2.52635900499707        2.60016311432487        0.42851420210876
C           -3.67456304580056        3.41978866373911        0.54625076907592
C           -4.98342959645211        2.91902811122171        0.47591984551481
C           -6.07452464651388        3.75532975560137        0.60153776854178
C           -5.88789501354201        5.11940734846568        0.80133955006788
C           -4.61253358476933        5.64203387123892        0.86968378885180
C           -3.47940339214441        4.82111266971207        0.74475151177390
C           -2.17217364837161        5.36300041117337        0.80996612848712
C           -1.04897590084267        4.57038700629740        0.68186016196955
C           -1.21733067294702        3.21117233960600        0.49183123886414
N           -0.27274658183374        2.21064372407915        0.33309736803320
C           -0.95886715604020        1.04470434931622        0.17745555075766
C            5.58562219029933        1.64080105534290       -1.84026295853819
C            6.59784556503184        2.33954191321788       -2.46867444536857
H            8.68572011079415        2.82199787274194       -2.48517354492105
H            9.18738818011528        1.45608919949233       -0.48903733989391
H            7.39105352505890        0.21903723922344        0.64691201023156
H            6.40246576064976       -1.68395744836376       -1.15857105711055
H            6.86296898926417       -3.91838619304137       -0.24178967077105
H            5.80820985278841       -4.63486050373414        1.87429748572751
H            4.29786132535798       -3.09071880811087        3.07286604573682
H            3.85188839498918       -0.84645470969094        2.16994217566784
H            4.32625349480018        2.71012355518988        0.34249353473659
H            2.10860877702954        3.75891274679982        0.53799220328169
H            2.54734922030903       -1.15498560005321       -0.23577401784582
H           -0.37520123814129       -2.21425138160787       -0.34072351792352
H           -1.78440187101266       -2.58391478145879        2.07809824807079
H           -0.93516331065914       -4.64403998935877        3.12204627535667
H           -1.18301821417894       -6.81466787584380        1.96774700555593
H           -2.27992946426090       -6.90593531484745       -0.24383053077833
H           -3.11117488288636       -4.84655129494235       -1.29850036595809
H           -5.14342372746804       -3.84827119316051        0.24918225895730
H           -7.21397002052801       -3.87800300687467       -1.07575066084807
H           -7.42466430471059       -2.45621269105695       -3.08515055436454
H           -5.53968450159395       -1.01102578069149       -3.76485265399530
H           -3.45706963833428       -0.99686233744405       -2.45493893821073
H           -4.09991665362729       -0.10555283953360        0.12925071779148
H           -5.13122217234756        1.86231227925160        0.31674244734066
H           -7.07508649667811        3.35010436229442        0.54448097193897
H           -6.74443413053368        5.77186338057617        0.90058593662626
H           -4.47015749293852        6.70343281451383        1.02265853674211
H           -2.06467849265017        6.42741463893944        0.96049255936956
H           -0.06120789300123        5.00491487362646        0.72708369313697
H            4.57542458804503        1.67972352034298       -2.22030643359648
H            6.37170077541664        2.93138098002397       -3.34343176087556
