80
 energy: -123.185988206623 gnorm: 0.000039449817 xtb: 6.7.1 (edcfbbe)
C            8.07583426167823       -1.65122478447515        1.70167282636882
C            6.80916640068718       -1.70372271445595        2.26099833885369
C            5.72725976559757       -1.15837989996119        1.59718586237083
C            5.89688669162314       -0.55532736302941        0.35042292025171
N            4.80029371257418       -0.00982139752668       -0.32732979954764
C            4.94180227142824        1.16759349842021       -1.06975995985398
C            4.23600102598597        1.34252243589121       -2.26079226925891
C            4.37545526183573        2.50789665603168       -2.98952691728435
C            5.22374805618523        3.51267843569122       -2.55266294045526
C            5.92909462882391        3.34375057554095       -1.37193905917053
C            5.78848160463305        2.18621983173894       -0.63091081229479
C            3.55516532134054       -0.65159831385802       -0.26515806300129
C            3.48971387322816       -2.04859470915202       -0.31215205198067
C            2.28315678571469       -2.72148335361671       -0.24941072861354
C            1.12026811954738       -1.98074400863710       -0.15138831457351
C            1.16757583852139       -0.55076198977663       -0.10795596594236
C            2.38514662898380        0.10050470816234       -0.15829939460259
C           -0.20097573005566       -0.06853268126071        0.00106912068385
C           -0.96157639046118        1.08845444190373        0.08429416530042
C           -2.36031712107254        0.95843847755306        0.19229299859154
N           -3.12589433452975        2.13719812480218        0.29392727705091
C           -4.32166331609578        2.24723266701941       -0.42269637642369
C           -5.42696783984762        2.89605355002618        0.12938065023978
C           -6.60527638567465        2.99638641877592       -0.58497422110584
C           -6.70834964617010        2.44614685267012       -1.85260866665003
C           -5.61674787118541        1.79363078994588       -2.40305396258707
C           -4.43145669554298        1.69642197592787       -1.70038823408780
C           -2.69418879030350        3.17735004219485        1.12137518898337
C           -2.91461694196955        4.50850072676127        0.76384355407987
C           -2.48552648274153        5.53214420174347        1.58616030272790
C           -1.82130062271747        5.25211517029014        2.76969434948580
C           -1.59202257820758        3.93291234892942        3.12623317301250
C           -2.02666369163830        2.90205110508873        2.31589410556844
C           -3.04555227593379       -0.26915595658899        0.20611514627141
C           -2.31518368028057       -1.44996270858850        0.09515102395767
C           -2.42490722444122       -2.89700671549914        0.04984633939087
C           -3.53117211499013       -3.77573106344466        0.08368352542242
C           -4.86631951636909       -3.33384799417729        0.16433193587677
C           -5.90086271408877       -4.22902931034331        0.19347910972350
C           -5.64854229664615       -5.60727839592667        0.14400750780480
C           -4.36267660065556       -6.06704993587614        0.06273945603470
C           -3.27223590180789       -5.17434651801519        0.02720970403994
C           -1.94260929230958       -5.65038502277165       -0.06479231481906
C           -0.87193319645961       -4.80110294483157       -0.10788912351237
C           -1.11229981827459       -3.42500935498602       -0.05149550551940
N           -0.20852604378534       -2.37758405214746       -0.07709734447811
C           -0.94419468290682       -1.23989538147453        0.00991657134665
C            7.17367012653648       -0.51007315018585       -0.21022308872122
C            8.25098649811870       -1.05033359707181        0.46534085782508
H            8.91960491517634       -2.07541013339209        2.22501934214646
H            6.66280048899686       -2.16523095876647        3.22695710827970
H            4.74267856084257       -1.19277254363689        2.04050900114917
H            3.58156267266895        0.55724515106962       -2.61054297770146
H            3.82384335377151        2.62800144957316       -3.91083496202053
H            5.33389772466244        4.42005346818379       -3.12739611792089
H            6.58786272999366        4.12416383799805       -1.01906226939249
H            6.33225712985063        2.06341133215115        0.29453788673251
H            4.40795826779158       -2.60988724634818       -0.40018565374904
H            2.25926841963469       -3.79926442596149       -0.28803521793755
H            2.43332746162306        1.17819938880711       -0.11589519854341
H           -0.52274353944271        2.07454802099957        0.07337319808396
H           -5.35494351717308        3.31556568284809        1.12244976994389
H           -7.45304227272278        3.50025167436200       -0.14334185785714
H           -7.63221976237721        2.52352868008506       -2.40604798171472
H           -5.68546152571898        1.36345287918688       -3.39187676623425
H           -3.58021718391160        1.19293678981248       -2.13539261162993
H           -3.42139465564688        4.73218828398153       -0.16381523032621
H           -2.66307963048859        6.55743558674915        1.29501023068285
H           -1.48455117834331        6.05528535948165        3.40795227916175
H           -1.07823084545235        3.70315082874632        4.04866117084979
H           -1.85361523779743        1.87492925446122        2.60299870550205
H           -4.12014626917484       -0.25182269013898        0.30313613406262
H           -5.06344040973847       -2.27414598476019        0.19909555868526
H           -6.92091547064022       -3.87753803520503        0.25387865487430
H           -6.47596982209715       -6.30158254439178        0.16955922875395
H           -4.16293522276167       -7.12881083157894        0.02204802545554
H           -1.78459821985481       -6.71855138806899       -0.10415741410700
H            0.13696364792802       -5.17654599935154       -0.18180265074349
H            7.31266429533831       -0.05172313506670       -1.17863141366720
H            9.23366901918233       -1.00927946927351        0.01806813239543
