  46
  -74.2259598971000       0.263187597751455      !
 C          0.7744652700       -6.5681828092       -1.6719719636
 C          0.6652637399       -5.8431708777       -0.3361434410
 C          0.3934681804       -4.3532299581       -0.5312075093
 C          0.2826892322       -3.6199832282        0.8120807477
 N          0.0214242391       -2.2189462676        0.6217631354
 C          0.9759596352       -1.2573722117        0.4603014237
 C          2.3721730920       -1.3534882563        0.4876100359
 C          3.1095656370       -0.2142939241        0.3019067440
 C          2.5076658020        1.0554111933        0.0843669842
 C          3.2371450667        2.2445259847       -0.1055029713
 C          4.6187124691        2.4300524376       -0.1167648095
 C          5.1306699363        3.7203724692       -0.3302197424
 N          5.5474562731        4.7781803264       -0.5058114167
 C          5.6156070497        1.4654285541        0.0646023783
 N          6.4892010345        0.7265302323        0.2051502925
 C          1.0838799103        1.1352905051        0.0552863409
 C          0.3444400701        0.0019648688        0.2393086320
 C         -1.0820305065       -0.2607178788        0.2637379306
 C         -2.1762816099        0.5425976087        0.1113777556
 C         -3.4777248435       -0.0340185514        0.1863220005
 C         -4.6608712082        0.7106706763        0.0495779280
 C         -4.8039713112        2.0855794071       -0.1646763658
 C         -3.7920517754        3.0410084584       -0.2903410500
 N         -3.0073265825        3.8789891409       -0.4020358872
 C         -6.0952841796        2.6230358764       -0.2717129234
 N         -7.1587507409        3.0548606810       -0.3584636636
 C         -3.5819373725       -1.4374937520        0.4123547821
 C         -2.4886826125       -2.2452430238        0.5671580787
 C         -1.2170818925       -1.6600771793        0.4966973241
 H          1.5876745311       -6.1571149555       -2.2656799556
 H          0.9669821860       -7.6256759074       -1.5124469080
 H         -0.1483889556       -6.4688862978       -2.2388868269
 H          1.5938572125       -5.9715786388        0.2249067155
 H         -0.1417344996       -6.2849390823        0.2532647491
 H          1.2001264822       -3.9049577067       -1.1172056747
 H         -0.5363503600       -4.2179783067       -1.0902542155
 H          1.2135833773       -3.7301748730        1.3747543468
 H         -0.5273411113       -4.0507663950        1.4070722311
 H          2.8685997253       -2.2982237073        0.6476024663
 H          4.1844869959       -0.2812990575        0.3207669087
 H          2.6553705640        3.1445547267       -0.2648281709
 H          0.6051242069        2.0884175368       -0.1116798219
 H         -2.0593434452        1.5978670976       -0.0641998666
 H         -5.5925037613        0.1623238093        0.1190807224
 H         -4.5700942319       -1.8702335739        0.4629812678
 H         -2.6114038965       -3.3043158122        0.7359377882
  46
  -74.2254589472000       0.154897634678017      !
 C          0.1435831874       -5.3458799526       -2.3006054487
 C         -0.3066760090       -4.5624054547       -1.0736866047
 C          0.8234198715       -4.4308308405       -0.0553929077
 C          0.4088342659       -3.6503569786        1.2004659022
 N          0.1080670677       -2.2760917993        0.9000721537
 C          1.0494036055       -1.3116817005        0.6839829016
 C          2.4458013901       -1.3770153257        0.7582364021
 C          3.1683267040       -0.2447193585        0.4889378249
 C          2.5509853496        0.9876656018        0.1411677747
 C          3.2647103358        2.1664473611       -0.1492018954
 C          4.6427356809        2.3693910324       -0.1786076785
 C          5.1364549443        3.6439280735       -0.5023266476
 N          5.5406581466        4.6876865475       -0.7681890665
 C          5.6528766473        1.4350506903        0.0743565614
 N          6.5339864583        0.7169259148        0.2653554818
 C          1.1271706797        1.0405375939        0.0830176074
 C          0.4028444625       -0.0863105710        0.3491154551
 C         -1.0192164693       -0.3701909999        0.3741997566
 C         -2.1210151162        0.4033954697        0.1439016419
 C         -3.4164971084       -0.1814040806        0.2519304404
 C         -4.6065908552        0.5343317462        0.0451710964
 C         -4.7639317034        1.8861553643       -0.2821593223
 C         -6.0614209082        2.3961357128       -0.4352801545
 N         -7.1309373286        2.8045252723       -0.5558265868
 C         -3.7609284065        2.8372002623       -0.4846775370
 N         -2.9834296682        3.6705080633       -0.6633023082
 C         -3.5050153599       -1.5626289111        0.5932992916
 C         -2.4040305067       -2.3402123464        0.8253946472
 C         -1.1371878655       -1.7488841821        0.7177729166
 H         -0.6692716829       -5.4260744100       -3.0172493680
 H          0.9803767643       -4.8487318398       -2.7857327766
 H          0.4557115405       -6.3492470156       -2.0205507934
 H         -1.1563699911       -5.0714066439       -0.6121803752
 H         -0.6423554076       -3.5689187693       -1.3841330729
 H          1.1493626368       -5.4247729388        0.2573027037
 H          1.6749787637       -3.9308515998       -0.5231175631
 H          1.2212125332       -3.6747705590        1.9333963234
 H         -0.4731307286       -4.1105799682        1.6514458697
 H          2.9533288098       -2.2917914078        1.0231323016
 H          4.2432122139       -0.2880883369        0.5445583017
 H          2.6704443688        3.0403775559       -0.3881058616
 H          0.6361803758        1.9674122319       -0.1725365191
 H         -2.0139864856        1.4422293381       -0.1154588237
 H         -5.5323246175       -0.0176910950        0.1529158821
 H         -4.4880670169       -2.0025943191        0.6722060725
 H         -2.5191094423       -3.3817038556        1.0836973299
  46
  -74.2253121834000       0.132616271481781      !
 C          0.0963892614       -5.3070231266       -2.3220211961
 C         -0.3366100659       -4.5492495948       -1.0726085908
 C          0.8120340861       -4.4232377620       -0.0741155729
 C          0.4193868847       -3.6522664996        1.1949420796
 N          0.1157480808       -2.2758652013        0.9076716157
 C          1.0555964887       -1.3124213718        0.6806844811
 C          2.4526237082       -1.3803637789        0.7387084934
 C          3.1735433810       -0.2478887733        0.4666407068
 C          2.5540466071        0.9872049856        0.1321079007
 C          3.2672561005        2.1683709896       -0.1496224417
 C          4.6457997165        2.3705544073       -0.1772150862
 C          5.1409309142        3.6498984401       -0.4793006958
 N          5.5436573725        4.6994284556       -0.7244586096
 C          5.6557999867        1.4319235284        0.0610074184
 N          6.5395050034        0.7143871562        0.2426995794
 C          1.1298319172        1.0407126378        0.0834394204
 C          0.4067618459       -0.0862978194        0.3529950398
 C         -1.0152246495       -0.3696739845        0.3908231386
 C         -2.1189222239        0.4021971597        0.1635484442
 C         -3.4133707195       -0.1827964800        0.2818328760
 C         -4.6048060840        0.5289676308        0.0674413407
 C         -4.7631082782        1.8730128375       -0.2877577866
 C         -6.0598240098        2.3821309339       -0.4525140447
 N         -7.1274868530        2.7919255558       -0.5856661280
 C         -3.7619149936        2.8213989167       -0.5125113931
 N         -2.9864413398        3.6517811003       -0.7116372625
 C         -3.4995889070       -1.5603869552        0.6376946027
 C         -2.3967996661       -2.3369614359        0.8645807982
 C         -1.1307505601       -1.7474294935        0.7393007373
 H          0.9118945946       -4.7877616348       -2.8204080953
 H          0.4329925276       -6.3085384194       -2.0646343202
 H         -0.7328099178       -5.3915237454       -3.0192587225
 H         -1.1720532207       -5.0745593227       -0.6030112227
 H         -0.6881472399       -3.5541972776       -1.3599090876
 H          1.1456908791       -5.4189500715        0.2247211535
 H          1.6539009079       -3.9174983717       -0.5537069115
 H          1.2438375141       -3.6825155582        1.9139971644
 H         -0.4555384338       -4.1149353277        1.6571321447
 H          2.9615795640       -2.2971358957        0.9937133948
 H          4.2488560021       -0.2928716655        0.5100786535
 H          2.6729862605        3.0454129208       -0.3767970914
 H          0.6376177993        1.9686099294       -0.1661575004
 H         -2.0141393349        1.4396675002       -0.1022683670
 H         -5.5299614275       -0.0213142626        0.1883681922
 H         -4.4820233517       -1.9992019834        0.7297361493
 H         -2.5094855135       -3.3764273463        1.1320016956
  46
  -74.2252778473000       0.127884242253864      !
 C         -0.2160304031       -6.6493969634       -0.1549362847
 C          0.8735034741       -5.7779179314       -0.7688735969
 C          0.4940735667       -4.2995616559       -0.8517189319
 C          0.3626443650       -3.6482423351        0.5323426196
 N          0.0864014504       -2.2423207561        0.4171546688
 C          1.0298115713       -1.2624512765        0.3115989133
 C          2.4269556368       -1.3444616384        0.3350105734
 C          3.1514462883       -0.1883668259        0.2145879915
 C          2.5352536120        1.0847319037        0.0690114553
 C          3.2515420494        2.2908747967       -0.0512802417
 C          4.6309276653        2.4915314283       -0.0535991075
 C          5.1288304039        3.7980079295       -0.1871838156
 N          5.5343890841        4.8690314828       -0.2967179735
 C          5.6384460041        1.5280862268        0.0643732953
 N          6.5201979142        0.7911972748        0.1557482224
 C          1.1107017187        1.1502514539        0.0430638583
 C          0.3840033069        0.0000610460        0.1614405291
 C         -1.0393699320       -0.2799993605        0.1690542907
 C         -2.1428297345        0.5178758121        0.0616260385
 C         -3.4374506181       -0.0771790100        0.1023482101
 C         -4.6289659256        0.6606337508        0.0072985834
 C         -4.7874208323        2.0439583630       -0.1268101518
 C         -3.7862228024        3.0166023679       -0.1929240121
 N         -3.0110229948        3.8685874740       -0.2537806687
 C         -6.0845484574        2.5722856898       -0.2049215646
 N         -7.1524760456        2.9971430114       -0.2683026756
 C         -3.5254283531       -1.4924066477        0.2476136316
 C         -2.4228772856       -2.2949144701        0.3575009403
 C         -1.1582922600       -1.6917691866        0.3220726512
 H         -1.1575048310       -6.5145368261       -0.6828872930
 H          0.0647275100       -7.6970039516       -0.2246519031
 H         -0.3683953960       -6.4149797008        0.8959730795
 H          1.0770364510       -6.1292277072       -1.7823694009
 H          1.7959344830       -5.8842342755       -0.1931127042
 H          1.2600395734       -3.7608383265       -1.4159834316
 H         -0.4517701981       -4.1908804501       -1.3891106293
 H          1.2915681369       -3.7791555452        1.0938785389
 H         -0.4490864464       -4.1139131268        1.0951199223
 H          2.9337932662       -2.2912351002        0.4413227749
 H          4.2270100828       -0.2442178582        0.2305003322
 H          2.6597739188        3.1924371479       -0.1556594337
 H          0.6213398158        2.1058805848       -0.0701186718
 H         -2.0381549072        1.5826679291       -0.0534222730
 H         -5.5543377912        0.0986935217        0.0435355082
 H         -4.5085053899       -1.9387276182        0.2722718451
 H         -2.5333002478       -3.3632897812        0.4655717403
  46
  -74.2252002006000       0.117796688538634      !
 C          1.9283325680       -6.1758565008       -0.2036047918
 C          0.5622911918       -5.8167205161       -0.7770295941
 C          0.3112610769       -4.3105007360       -0.8444674474
 C          0.1811066854       -3.6724669022        0.5459107110
 N         -0.0684051691       -2.2608521003        0.4416335006
 C          0.9000749240       -1.3073198774        0.3216476537
 C          2.2944206993       -1.4287702828        0.3299819117
 C          3.0495583454       -0.2941555676        0.1946731508
 C          2.4674532349        0.9947262959        0.0480274242
 C          3.2162400316        2.1789082213       -0.0914916739
 C          4.6006478988        2.3394628134       -0.1150882139
 C          5.1340899981        3.6295383252       -0.2692801285
 N          5.5683398805        4.6872549538       -0.3962366120
 C          5.5815070728        1.3483698483       -0.0016713755
 N          6.4425012608        0.5867494501        0.0850641592
 C          1.0451090309        1.1005205227        0.0404267442
 C          0.2878791779       -0.0281905114        0.1740941950
 C         -1.1424534881       -0.2692334976        0.2000412366
 C         -2.2245973802        0.5581714937        0.0998471583
 C         -3.5346846519       -0.0006185832        0.1570008120
 C         -4.7063107437        0.7689089415        0.0666015657
 C         -4.8278876583        2.1539014523       -0.0874730589
 C         -6.1106689783        2.7175501080       -0.1553764691
 N         -7.1673171992        3.1708860067       -0.2099235768
 C         -3.8010151036        3.0961904167       -0.1885839240
 N         -3.0031827735        3.9243478945       -0.2781368721
 C         -3.6601109310       -1.4118063288        0.3137673000
 C         -2.5790428026       -2.2440743115        0.4147908464
 C         -1.2985442765       -1.6768499634        0.3603423353
 H          2.0052810200       -5.9041082761        0.8466716078
 H          2.0938187877       -7.2470701076       -0.2818972543
 H          2.7191413578       -5.6696118196       -0.7532233777
 H         -0.2220591800       -6.2905206985       -0.1820904145
 H          0.4906417620       -6.2143664349       -1.7914103863
 H          1.1301068793       -3.8256086122       -1.3824046619
 H         -0.6101777338       -4.1198344274       -1.4011149076
 H          1.1015945147       -3.8175669944        1.1152619861
 H         -0.6415594515       -4.1378821768        1.0950483899
 H          2.7756220533       -2.3887488505        0.4371254399
 H          4.1232159692       -0.3799306234        0.1990100033
 H          2.6492212692        3.0962585984       -0.1954318246
 H          0.5815871365        2.0690297713       -0.0719185716
 H         -2.0917802340        1.6190938264       -0.0218520408
 H         -5.6464285128        0.2336336341        0.1222183401
 H         -4.6547975740       -1.8305164799        0.3530131946
 H         -2.7178181736       -3.3083496318        0.5300055554
  46
  -74.2247316224000       7.174463841135809E-002 !
 C          2.3072752387       -5.1113401385       -0.9697461291
 C          1.0462032932       -4.3483866886       -1.3589945128
 C         -0.0993455036       -4.5437681744       -0.3643986997
 C          0.0733782745       -3.7367041905        0.9325049243
 N         -0.1233729894       -2.3293943703        0.7096217248
 C          0.8577624862       -1.4010344896        0.5189852425
 C          2.2521582104       -1.5276124142        0.5554600377
 C          3.0185419024       -0.4160589334        0.3284955602
 C          2.4505989584        0.8602204035        0.0624599143
 C          3.2107325030        2.0204906549       -0.1744305724
 C          4.5977446247        2.1649664309       -0.2047595549
 C          5.1449046152        3.4320338293       -0.4637013361
 N          5.5906313393        4.4708862713       -0.6779054851
 C          5.5673349301        1.1769050191       -0.0045973925
 N          6.4194701578        0.4156283498        0.1486464984
 C          1.0290959632        0.9758787123        0.0369502021
 C          0.2611105129       -0.1306241653        0.2612988608
 C         -1.1719146015       -0.3490142090        0.3057334615
 C         -2.2429694542        0.4826336029        0.1395732303
 C         -3.5597941852       -0.0501520760        0.2514839496
 C         -4.7217806301        0.7257385313        0.1004344825
 C         -4.8253338007        2.0936999714       -0.1671708827
 C         -6.1007046118        2.6673375209       -0.2806198522
 N         -7.1509780244        3.1292600247       -0.3700619137
 C         -3.7860735753        3.0105484414       -0.3444205699
 N         -2.9773367796        3.8178129108       -0.5019119571
 C         -3.7038317092       -1.4392108965        0.5342065298
 C         -2.6336810918       -2.2754976010        0.7012622434
 C         -1.3459087278       -1.7346226699        0.5852805583
 H          2.1088642502       -6.1800937258       -0.9353820894
 H          3.0929054063       -4.9330865976       -1.6990633278
 H          2.6805725663       -4.8057986892        0.0051546940
 H          0.7156235149       -4.7007472576       -2.3380317286
 H          1.2708107271       -3.2829284717       -1.4594761972
 H         -1.0419145656       -4.2471403650       -0.8312771337
 H         -0.1737454178       -5.6007882455       -0.1019717260
 H          1.0716928269       -3.8905589694        1.3444999739
 H         -0.6578102142       -4.0730922828        1.6737364413
 H          2.7283234251       -2.4744420279        0.7556941687
 H          4.0910565168       -0.5105368588        0.3539657231
 H          2.6535002093        2.9309237435       -0.3597683348
 H          0.5741683159        1.9350441540       -0.1592172937
 H         -2.0960059632        1.5272292292       -0.0729950567
 H         -5.6684684672        0.2095016325        0.2030667727
 H         -4.7038380027       -1.8377213578        0.6204294772
 H         -2.7865102392       -3.3217886764        0.9183510440
  46
  -74.2246480330000       6.567111993136947E-002 !
 C         -1.1206444047       -5.7571331950       -0.9525737533
 C         -0.2246790364       -4.5953200027       -1.3667373695
 C          0.9464424696       -4.3740395030       -0.4078942758
 C          0.5413218560       -3.6816675602        0.9034601925
 N          0.2102319967       -2.2981699412        0.6901867851
 C          1.1335270119       -1.3066267201        0.5212936668
 C          2.5314832991       -1.3524538425        0.5773060508
 C          3.2320335010       -0.1923689227        0.3761768715
 C          2.5907071024        1.0491906082        0.1165299015
 C          3.2815393555        2.2593465709       -0.0899822784
 C          4.6548125254        2.4921164869       -0.0933230455
 C          5.1235303585        3.7969122269       -0.3198977227
 N          5.5032460032        4.8667544498       -0.5054540883
 C          5.6827730487        1.5638269868        0.1057249702
 N          6.5794173890        0.8563412950        0.2601060012
 C          1.1662641188        1.0792387006        0.0660177958
 C          0.4637757372       -0.0750645155        0.2653805676
 C         -0.9527966527       -0.3843380702        0.2840162954
 C         -2.0684015118        0.3820337475        0.1020416742
 C         -3.3536759022       -0.2289420807        0.1846915233
 C         -4.5557019615        0.4749984671        0.0106310478
 C         -4.7350479081        1.8380727360       -0.2537612313
 C         -6.0394242812        2.3326405987       -0.3983556795
 N         -7.1133706835        2.7296803657       -0.5172724748
 C         -3.7489349366        2.8167903240       -0.3972960191
 N         -2.9865179125        3.6726598874       -0.5263733162
 C         -3.4173810077       -1.6261323949        0.4606805812
 C         -2.3023410650       -2.3962020710        0.6449240634
 C         -1.0449949604       -1.7818914440        0.5519734976
 H         -1.9396913063       -5.8683759067       -1.6582294233
 H         -0.5544289663       -6.6855798753       -0.9372572730
 H         -1.5477398305       -5.6060525617        0.0364807559
 H         -0.8150028194       -3.6780026414       -1.4467310911
 H          0.1788083565       -4.8048039554       -2.3593330707
 H          1.3986480796       -5.3363643865       -0.1607142060
 H          1.7078994485       -3.7625274062       -0.8981005073
 H          1.3716345362       -3.7308636001        1.6143248387
 H         -0.3185963430       -4.1842532725        1.3488540030
 H          3.0574169737       -2.2735374219        0.7762508152
 H          4.3079847506       -0.2205795452        0.4188580971
 H          2.6701647930        3.1353767127       -0.2711163638
 H          0.6571525554        2.0111895317       -0.1282946580
 H         -1.9797613684        1.4347722749       -0.1021276452
 H         -5.4720533753       -0.0974904502        0.0876245508
 H         -4.3924835745       -2.0852887737        0.5275431895
 H         -2.4008733476       -3.4498117205        0.8556220535
  46
  -74.2241660439000       3.943370370876489E-002 !
 C          2.3103030133       -5.1328566877       -0.9426557962
 C          1.0550441549       -4.3679135568       -1.3464756270
 C         -0.0974811867       -4.5500194551       -0.3574150405
 C          0.0717722405       -3.7345218852        0.9346565363
 N         -0.1243114896       -2.3284796703        0.7029826009
 C          0.8570847740       -1.4002226919        0.5131205957
 C          2.2514485122       -1.5261336150        0.5533947617
 C          3.0179657600       -0.4145332567        0.3269065799
 C          2.4502243368        0.8611697252        0.0575716436
 C          3.2102981765        2.0219619741       -0.1768162091
 C          4.5973600644        2.1670053709       -0.2050235529
 C          5.1443740691        3.4375902981       -0.4465159112
 N          5.5872989659        4.4754168933       -0.6717252333
 C          5.5668460610        1.1779159299       -0.0095437985
 N          6.4189555933        0.4157862103        0.1403856995
 C          1.0287272206        0.9761753621        0.0282985164
 C          0.2606680562       -0.1303852426        0.2519507932
 C         -1.1723845675       -0.3489097354        0.2939639090
 C         -2.2431834711        0.4830128341        0.1275331756
 C         -3.5601409456       -0.0492916100        0.2398613341
 C         -4.7218931394        0.7279504951        0.0940788590
 C         -4.8251795144        2.0977043809       -0.1646957826
 C         -6.1008517390        2.6727043912       -0.2696613157
 N         -7.1524395650        3.1351727559       -0.3479684432
 C         -3.7855311131        3.0155679824       -0.3380134048
 N         -2.9761616477        3.8232682538       -0.4896706886
 C         -3.7045694009       -1.4389815220        0.5192492343
 C         -2.6346653491       -2.2754285701        0.6871382201
 C         -1.3466963781       -1.7342810818        0.5743914490
 H          2.6815411339       -4.8171745693        0.0299477346
 H          2.1056862226       -6.2000668133       -0.8958001092
 H          3.0998443048       -4.9680570549       -1.6710485126
 H          0.7290415061       -4.7274143105       -2.3245037894
 H          1.2848027258       -3.3042719511       -1.4545832122
 H         -1.0356923228       -4.2520600490       -0.8321542121
 H         -0.1789144890       -5.6047548375       -0.0878830222
 H          1.0690087878       -3.8858472970        1.3501962630
 H         -0.6613367965       -4.0660490306        1.6762647323
 H          2.7275084340       -2.4724263521        0.7564908373
 H          4.0904551665       -0.5083097912        0.3561774168
 H          2.6529743628        2.9329422276       -0.3592039856
 H          0.5738642179        1.9349195716       -0.1700432699
 H         -2.0958536702        1.5275479065       -0.0850700306
 H         -5.6687940819        0.2117116156        0.1961295154
 H         -4.7046930676       -1.8377156042        0.6031593415
 H         -2.7878309434       -3.3220124556        0.9025507817
  46
  -74.2232448948000       1.487773275032338E-002 !
 C          0.6065324874       -3.3906276244       -2.0977964550
 C          1.0050938512       -4.4899705015       -1.1183083999
 C          0.0184879663       -4.6780291530        0.0383178790
 C          0.2423639045       -3.7353059180        1.2315066511
 N          0.0098252634       -2.3526675973        0.9150832357
 C          0.9720131561       -1.4110962749        0.6913471322
 C          2.3680626219       -1.5034539374        0.7466465279
 C          3.1111355229       -0.3895209891        0.4599966161
 C          2.5168873816        0.8539262658        0.1106946349
 C          3.2523730799        2.0140078130       -0.1967929783
 C          4.6352330618        2.1884201205       -0.2306874381
 C          5.1539042685        3.4471851878       -0.5753651546
 N          5.5765163677        4.4785889262       -0.8601542784
 C          5.6260681891        1.2394750198        0.0418995540
 N          6.4944555745        0.5111512570        0.2524114914
 C          1.0937701333        0.9353048322        0.0668698257
 C          0.3489129226       -0.1730421586        0.3521441405
 C         -1.0789652821       -0.4245073641        0.3880618710
 C         -2.1664739352        0.3690380767        0.1570951875
 C         -3.4720047484       -0.1888425607        0.2806218836
 C         -4.6488399941        0.5476149778        0.0648153041
 C         -4.7789397959        1.8932204776       -0.2929928425
 C         -6.0644457915        2.4304803620       -0.4571489647
 N         -7.1213921419        2.8667811749       -0.5887461621
 C         -3.7578272978        2.8197632157       -0.5209565783
 N         -2.9656495134        3.6335329583       -0.7224751416
 C         -3.5873748714       -1.5610890260        0.6478443988
 C         -2.5005067533       -2.3592207018        0.8794818835
 C         -1.2239996667       -1.7959940394        0.7445807469
 H         -0.3958592310       -3.5678373541       -2.4828289063
 H          0.6282409641       -2.4049348284       -1.6394176641
 H          1.2952820569       -3.3783354231       -2.9390241058
 H          2.0039820701       -4.2880759271       -0.7243623926
 H          1.0607323656       -5.4305807495       -1.6703195517
 H         -1.0006051142       -4.5562499494       -0.3356492423
 H          0.1110785626       -5.6945941037        0.4259752389
 H          1.2673761450       -3.8395987076        1.5933528781
 H         -0.4358407648       -4.0207243175        2.0431031050
 H          2.8636803397       -2.4258187117        1.0074353339
 H          4.1852649914       -0.4567154488        0.5003999867
 H          2.6753718491        2.8968175275       -0.4449139020
 H          0.6190423470        1.8691470114       -0.1937547208
 H         -2.0409423354        1.4027548307       -0.1138532651
 H         -5.5851874585        0.0172013646        0.1887150438
 H         -4.5790090282       -1.9771235905        0.7472627605
 H         -2.6314031828       -3.3921390971        1.1640977208
  46
  -74.2230330843000       1.189037049443329E-002 !
 C         -0.2173229101       -3.5863238468       -2.0711258820
 C         -0.1130906458       -4.7433054613       -1.0825817277
 C          0.9192600606       -4.5212810980        0.0267220139
 C          0.4085782812       -3.7075551477        1.2264027129
 N          0.1097894654       -2.3394086100        0.9020513424
 C          1.0512141530       -1.3780753651        0.6775719169
 C          2.4478117981       -1.4447375376        0.7494402632
 C          3.1710142348       -0.3151273054        0.4722426121
 C          2.5545023853        0.9167351371        0.1200714180
 C          3.2697991024        2.0940173845       -0.1710424282
 C          4.6489579813        2.2940171263       -0.1990302134
 C          5.1457172735        3.5700147080       -0.5117367503
 N          5.5499722870        4.6160377498       -0.7683023664
 C          5.6568902173        1.3556935913        0.0476475626
 N          6.5384479239        0.6370286520        0.2347991135
 C          1.1304939167        0.9713021391        0.0649401875
 C          0.4055009356       -0.1530505138        0.3393066936
 C         -1.0170437253       -0.4332790962        0.3756525297
 C         -2.1184129721        0.3391272762        0.1391981139
 C         -3.4141072239       -0.2431054520        0.2542942498
 C         -4.6035826341        0.4702283759        0.0327508416
 C         -4.7585536120        1.8162028576       -0.3152412736
 C         -6.0539579602        2.3248644969       -0.4913536028
 N         -7.1206891226        2.7332671862       -0.6336006473
 C         -3.7549097672        2.7668879552       -0.5187385648
 N         -2.9765300316        3.5985836125       -0.7002483558
 C         -3.5040971920       -1.6192709410        0.6135068156
 C         -2.4035443874       -2.3960719189        0.8512152857
 C         -1.1361236894       -1.8086864334        0.7324011965
 H          0.7585064359       -3.3588244603       -2.4954684536
 H         -0.8860513966       -3.8547490392       -2.8851788817
 H         -0.6074287391       -2.6837051734       -1.6072265408
 H          0.1778539785       -5.6373859757       -1.6380850786
 H         -1.0931517738       -4.9422324993       -0.6420935875
 H          1.2334217798       -5.4898162469        0.4211286382
 H          1.8001877461       -4.0326895379       -0.3952022253
 H          1.1734411387       -3.7139790559        2.0106599449
 H         -0.4936581363       -4.1733128336        1.6287106598
 H          2.9543217928       -2.3576179705        1.0223118027
 H          4.2458432003       -0.3589974434        0.5267893407
 H          2.6773368338        2.9696796009       -0.4078527240
 H          0.6402695089        1.8979726965       -0.1926862798
 H         -2.0104100332        1.3745074187       -0.1329550763
 H         -5.5297769025       -0.0805246591        0.1430806603
 H         -4.4874924231       -2.0568824805        0.7003356118
 H         -2.5209303906       -3.4343153046        1.1220265901
