  105
       -158.59821843
 C        -10.5621047406       -2.3793640954        2.3513138334
 C         -9.4867566394       -1.5258782388        1.7542447910
 C         -8.3690817488       -2.1109184611        1.1651417343
 C         -7.3672812704       -1.3417524354        0.6151903592
 C         -7.4533145324        0.0528320384        0.6414335089
 N         -6.4219816617        0.8130379373        0.0955297294
 C         -6.6596301495        2.0577553914       -0.4813031772
 C         -7.8607279573        2.3484794242       -1.1344926459
 C         -8.0590377477        3.5887835308       -1.7024678067
 C         -7.0760385886        4.5729782457       -1.6506509584
 C         -7.3004813812        5.9071627397       -2.2917965653
 C         -5.8788156305        4.2735073212       -1.0103511755
 C         -5.6678708966        3.0397003649       -0.4315769036
 C         -5.1150212893        0.3133476437        0.1290773770
 C         -4.3929262889        0.1578696889       -1.0949331420
 C         -4.9767572230        0.4101648887       -2.3401332118
 C         -4.2923683230        0.1722128474       -3.5259042171
 C         -3.0218930664       -0.3643421063       -3.4914086215
 C         -2.4302452545       -0.6558204800       -2.2691487663
 C         -3.0711260480       -0.3773235312       -1.0561226038
 C         -2.4714513591       -0.7061067503        0.1973508626
 C         -1.1116872573       -1.2307627031        0.2289366399
 C         -0.8238089122       -2.4548296508        0.8463480200
 C          0.4603168147       -2.9536163762        0.8520938819
 C          1.4958058099       -2.2424545409        0.2549287154
 P          3.1361087389       -3.0222762130        0.2816937406
 O          3.3383796093       -3.9323306946        1.4149650967
 C          3.3111344734       -3.8420186006       -1.3387741688
 C          4.1388936318       -4.9551017605       -1.3826914562
 C          4.3321447325       -5.6294205076       -2.5745672266
 C          3.6954312009       -5.1913378724       -3.7245224874
 C          2.8621220995       -4.0849775783       -3.6803768739
 C          2.6670456538       -3.4083796738       -2.4894164583
 C          4.3359050036       -1.6511953493        0.2425603332
 C          4.6743305447       -0.9565539815       -0.9116888203
 C          5.5832212992        0.0811893733       -0.8523629816
 C          6.1606906875        0.4386302864        0.3650565756
 N          7.0793456650        1.4920358708        0.4233036698
 C          6.8964125315        2.7558020980       -0.1046590994
 C          5.7930433312        3.2928962590       -0.7517776928
 C          5.8614467240        4.6121631980       -1.1572638352
 C          6.9933452751        5.3885627532       -0.9202944737
 C          8.0843735793        4.8672890573       -0.2541242238
 C          8.0391518044        3.5437020110        0.1629818295
 C          8.9553963384        2.7036324496        0.8826168401
 C         10.2315488400        2.9013627552        1.3933594910
 C         10.8603968471        1.8486025435        2.0271867690
 C         10.2391043387        0.6069134543        2.1406461489
 C          8.9698048549        0.3860581082        1.6410417377
 C          8.3225933075        1.4480168734        1.0260684235
 C          5.8245233903       -0.2632629036        1.5210123406
 C          4.9198948457       -1.3034118944        1.4530923256
 C          1.2296081065       -1.0147100632       -0.3427606224
 C         -0.0568994914       -0.5211195710       -0.3599857455
 C         -3.1918278756       -0.5270989361        1.4168464849
 C         -2.5853284884       -0.7337106796        2.6615324642
 C         -3.2738784374       -0.5309113182        3.8505021371
 C         -4.5742059659       -0.0706959069        3.8188396887
 C         -5.1867161208        0.1938977704        2.5998208485
 C         -4.5301902437       -0.0342371959        1.3867854843
 C         -8.5667785776        0.6458050355        1.2406689075
 C         -9.5651577105       -0.1384363728        1.7816511417
 H        -10.8953764137       -3.1300906878        1.6363698184
 H        -11.4163658241       -1.7782531046        2.6519328828
 H        -10.1827690200       -2.9034772781        3.2285012244
 H         -8.2902484563       -3.1878898431        1.1322321437
 H         -6.5111771674       -1.8070308171        0.1495150856
 H         -8.6250455699        1.5888107236       -1.2111812498
 H         -8.9920208980        3.7968054709       -2.2064834408
 H         -6.6090136340        6.6485414249       -1.8993223513
 H         -8.3195071034        6.2501764914       -2.1245143006
 H         -7.1456823582        5.8348521730       -3.3689665186
 H         -5.1016902074        5.0221701882       -0.9566334678
 H         -4.7390342686        2.8239488035        0.0753195221
 H         -5.9838413088        0.7920290481       -2.3962075724
 H         -4.7692301167        0.3965309937       -4.4684319344
 H         -2.4894074625       -0.5741486514       -4.4071229525
 H         -1.4616409388       -1.1311869159       -2.2571572059
 H         -1.6291171325       -3.0225455099        1.2898459940
 H          0.6881777194       -3.9005914720        1.3206115259
 H          4.6131734458       -5.2833320283       -0.4688500011
 H          4.9756599539       -6.4964046285       -2.6086230090
 H          3.8429179314       -5.7165980667       -4.6568968006
 H          2.3600833194       -3.7511308468       -4.5771288095
 H          2.0060089906       -2.5537697221       -2.4493933063
 H          4.2440603655       -1.2426092543       -1.8610210537
 H          5.8684584877        0.6093019064       -1.7503997753
 H          4.9029409232        2.7064120851       -0.9232719864
 H          5.0161963293        5.0520805175       -1.6654880147
 H          7.0087609046        6.4148949680       -1.2550274135
 H          8.9551734523        5.4733708750       -0.0546135664
 H         10.7191664433        3.8589641546        1.2896356715
 H         11.8518238632        1.9816912516        2.4340859755
 H         10.7624466669       -0.2031539888        2.6267994167
 H          8.5055348548       -0.5855176123        1.7175642933
 H          6.2643506133        0.0225912036        2.4646432389
 H          4.6516941580       -1.8657245453        2.3357709826
 H          2.0348743572       -0.4413732520       -0.7808375743
 H         -0.2589911555        0.4424078199       -0.8062756338
 H         -1.5505188127       -1.0365046063        2.7017861389
 H         -2.7810884576       -0.7208117078        4.7921757266
 H         -5.1195322525        0.1006920186        4.7349631374
 H         -6.1898347376        0.5901722515        2.6041185599
 H         -8.6327217079        1.7225053219        1.2996190576
 H        -10.4174214364        0.3386578131        2.2439697770
