125
 energy: -182.791161010011 gnorm: 0.000078633726 xtb: 6.7.1 (edcfbbe)
C           -3.56912925860170       -0.23559691219983        5.27967510799221
C           -4.73546852843268       -0.82848635200065        4.47423415177803
C           -4.48407521310690       -2.32243909432983        4.21900371572570
C           -6.00885948405861       -0.69841338274651        5.31575079056795
C           -4.83086248856931       -0.10258038385459        3.14002443626130
C           -5.96760249381226        0.59378015060160        2.73883500949765
C           -6.02959828192051        1.25657674023657        1.52288239619056
C           -4.93122924948587        1.22731646796609        0.68233470263258
C           -3.78125738543424        0.52227101921471        1.06853858998996
C           -3.73050040046152       -0.12898397830512        2.27872150686289
C           -2.70825757260040        0.62623584485440        0.00197655019133
C           -2.33350127454659       -0.70643636298815       -0.62816263950831
C           -3.16557716003840       -1.79514426302894       -0.58103681530432
C           -2.75893641246798       -3.05763294049413       -1.12481306253545
C           -3.60148747588720       -4.20352208338839       -1.04627399040125
C           -4.72960200475719       -4.30722968740171       -0.17497337557026
C           -5.52822524688752       -5.41880353814432       -0.18912115000976
C           -5.21032643491850       -6.48005062491158       -1.04481198517078
N           -4.19516018452239       -6.37297907591918       -1.90062155113970
C           -3.44044211013557       -5.31576728438878       -1.92150145465661
C           -1.46300881408683       -3.13810409003351       -1.67705268299112
C           -0.62079899973886       -2.04800302664763       -1.73898821613893
C            0.75069201110565       -2.15963298365134       -2.21439399898260
C            1.15835302297127       -3.07574475024614       -3.19666736140725
C            2.48363295963048       -3.12219014864071       -3.57885125632251
C            3.38468711811181       -2.24743026641170       -2.98465387762849
N            3.01991055260263       -1.38012137091687       -2.04798440807674
C            1.75939649322167       -1.34416233222354       -1.67837613990232
C           -1.09205593601931       -0.79767531880331       -1.26397050735996
C           -1.45408854706539        1.25009895629203        0.58054558684141
C           -0.54288140138680        0.41308543520935        1.24375447529996
C            0.69497512517242        0.86393128470251        1.65305278104072
C            1.02579842128046        2.18460773993685        1.38568268367269
C            0.07257283940941        3.07308344748579        0.83492260438428
C           -1.16975871550260        2.59810645807584        0.43054441171322
C            0.70992494855665        4.35923234510831        0.77582480535122
C            0.29480016678813        5.60983255807473        0.33759125733362
C            1.19089871169107        6.66239190801867        0.39428808755598
C            2.48841887422279        6.47577861033513        0.86188868462042
C            2.92649710229435        5.23645182623333        1.30049188244679
C            2.02482533446465        4.18452604088240        1.27297888909541
N            2.19986366951251        2.85946544699241        1.63648575929762
C            3.40555599379446        2.25054092171746        2.00922216485152
C            4.18644037680390        2.77941584227283        3.03507442757352
C            5.38129370979634        2.16765314948866        3.37091340936221
C            5.80536410214569        1.03011258229704        2.70687712599426
C            5.02603596941472        0.49704530257288        1.68072490932939
N            5.44893064808861       -0.64593187199540        0.98855176045906
C            6.68140260732294       -0.80911297854769        0.38654452805237
C            7.75355079621355        0.06953333060815        0.31427318306195
C            8.88097949313858       -0.34251981373651       -0.37226200837640
C            8.94331398403417       -1.59286373445992       -0.98271474371710
C            7.86884081293159       -2.46211690605420       -0.93513965512694
C            6.72653028177579       -2.07088351466286       -0.25115985829610
C            5.45086058214561       -2.69198579323491       -0.01785257545823
C            4.90505317366472       -3.91630646806094       -0.37478600389871
C            3.62126840643587       -4.21646435808125        0.04059959133108
C            2.89226301336337       -3.32041837880128        0.81763051506949
C            3.41735645147208       -2.09654282186157        1.18549140768675
C            4.69264686710194       -1.77502600755226        0.74554921079094
C            3.82956435187072        1.11080762933425        1.33155926767246
C           -3.39823039322456        1.48953966305022       -1.03453374774520
C           -2.91202647151772        1.92541323390671       -2.24481114320676
C           -3.70777224301347        2.71541912312244       -3.07857972743727
C           -3.13185353158795        3.19093509201935       -4.40419774622162
C           -4.11590540070987        4.04460378282374       -5.21005483509633
C           -1.88002621569365        4.03831725223258       -4.12842299174655
C           -2.75559227445370        1.96694508982853       -5.25298988337367
C           -4.99431529790680        3.03651730679423       -2.65423903012534
C           -5.49733045920809        2.59658331805067       -1.43954766504162
C           -4.69756371060364        1.81805809238876       -0.62203258725023
H           -2.62226019119670       -0.36429629409524        4.76247697504359
H           -3.72681270483878        0.82925158286504        5.44067956190949
H           -3.49755850764880       -0.72512271836021        6.24880202006436
H           -4.39636741611219       -2.85400401172638        5.16440736020405
H           -5.31227413699374       -2.75317974555480        3.65926426675986
H           -3.57016431753298       -2.48252642901586        3.65313612764973
H           -5.87781358792087       -1.23459682434952        6.25374719287892
H           -6.86554381973865       -1.12864161421396        4.80152242256778
H           -6.21848240156907        0.34270393574674        5.55071610216559
H           -6.83408551268495        0.63224657742128        3.37874594587304
H           -6.92604301184312        1.78994039719998        1.24144527386113
H           -2.83701909984852       -0.66625646931168        2.55557531979548
H           -4.13478000660687       -1.70447280692331       -0.11802493913841
H           -4.92740640594890       -3.51724455219940        0.53243405382807
H           -6.36852557098649       -5.51112222546256        0.48287109126896
H           -5.75296678987108       -7.41214015179581       -1.04676078125103
H           -2.70171852393679       -5.28850271268111       -2.71107703644955
H           -1.09474872137522       -4.10187051689687       -1.99649959377196
H            0.43199357523314       -3.72430208888820       -3.66523574288875
H            2.81829635918641       -3.81502350288943       -4.33628007534658
H            4.42966792688442       -2.23004769652272       -3.26099858161413
H            1.52784686123920       -0.64138042206335       -0.88799288648789
H           -0.48316108574367        0.08061820473840       -1.39881901931136
H           -0.80240327953290       -0.62092481397385        1.41102175860477
H            1.38367572011083        0.20472975718418        2.15741233512240
H           -1.88481999678499        3.26310057140053       -0.02863646432809
H           -0.70612504287373        5.75146266964180       -0.04107991675344
H            0.88445398043636        7.64353381282932        0.06278709789679
H            3.17080673918211        7.31249041115599        0.87985105436207
H            3.94091722717781        5.09956792358627        1.64143075693713
H            3.84469478470632        3.64941126783436        3.57371325333706
H            5.98263298399850        2.57440953395633        4.16961192973011
H            6.72529726008085        0.54150214088790        2.98789833382800
H            7.70881217615363        1.04773948601285        0.76807322370973
H            9.73037315846208        0.32119601552922       -0.43974471040582
H            9.84211165934627       -1.88023084520350       -1.50808355882253
H            7.91323273787827       -3.42491041514080       -1.42176659181753
H            5.47339828636088       -4.62020092840064       -0.96412506151306
H            3.17511113905079       -5.16119166949249       -0.23429253413861
H            1.89544136135183       -3.58735420029481        1.13784832124652
H            2.85065536686855       -1.41737405969321        1.80210042418379
H            3.25037077812033        0.71714343645284        0.51023058910127
H           -1.91041476928543        1.65485032212574       -2.54140488300844
H           -3.64812775727118        4.34926366796635       -6.14430762494508
H           -5.01471773387922        3.48240416879540       -5.45332255291302
H           -4.39295008762550        4.94427310908734       -4.66505248761209
H           -1.46008577067510        4.40038886096271       -5.06461574851927
H           -1.11525172117129        3.46334083806420       -3.61322061088126
H           -2.13604178747772        4.89705330379435       -3.51057236688874
H           -2.00805194500724        1.35251643835919       -4.75810129777383
H           -3.63424782135612        1.35056897123137       -5.43480153791162
H           -2.35310125962435        2.28617999001456       -6.21226278058173
H           -5.63351983309840        3.64340904519737       -3.27464703796808
H           -6.50083084690221        2.86254862359301       -1.14025954789730
