125
 energy: -182.897071940496 gnorm: 0.000041250104 xtb: 6.7.1 (edcfbbe)
C           -4.75828251377567        5.95607552219471        2.33749109566135
C           -3.94987586128656        4.65509222420821        2.34216756749004
C           -2.47071046628291        5.01373644446750        2.55027582683932
C           -4.44521002781235        3.78840038628888        3.51047685366869
C           -4.09239518733235        3.86516173845081        1.04950422638846
C           -4.89705111750646        4.28119012579625       -0.00684942431182
C           -5.01831601461032        3.53999237197447       -1.17279903461549
C           -4.32221252215316        2.35077470967113       -1.29031363273361
C           -3.50916584449342        1.91838524640876       -0.23354428494026
C           -3.39161522562706        2.66379065955678        0.91574402255117
C           -2.83536280692290        0.60206148887103       -0.57589386234499
C           -3.28019773846673       -0.54719484063802        0.30585245991666
C           -4.47507018497475       -0.48603001270571        1.00716768519121
C           -4.91098333345881       -1.56530774647357        1.77118400546665
C           -6.17030550387465       -1.47519281288547        2.52229166198094
C           -7.30373188457980       -0.87008591732639        1.98016318827911
C           -8.46620060360291       -0.81555388822829        2.72905986361213
C           -8.45968112517570       -1.37053038185003        4.00029832269222
N           -7.39066613691528       -1.94018433947792        4.53373576770230
C           -6.28380159822500       -1.98743985337759        3.81597049435543
C           -4.14267116448547       -2.72303087858661        1.81566303353150
C           -2.94888031842570       -2.80569399498631        1.10625099971350
C           -2.13967453703656       -4.03122280097953        1.14953075144582
C           -2.72229709946539       -5.29746632486120        1.11039975666249
C           -1.91197850849183       -6.41842605831306        1.15766898567320
C           -0.53921012282994       -6.23777773052064        1.23886221667541
N            0.03062063508772       -5.04373251705353        1.27976329824435
C           -0.74713799528441       -3.97795575982655        1.23792944730710
C           -2.52618846532211       -1.71220218944011        0.35698834894283
C           -1.33256191335737        0.80542515038031       -0.54299684805302
C           -0.65402051657329        0.70990014446513        0.67729231152532
C            0.70370642011567        0.93629365339135        0.78250128049609
C            1.39827915437143        1.27834198494133       -0.36891311121971
C            0.73152675806822        1.36489990472764       -1.61117698853786
C           -0.63577184747902        1.13998521126127       -1.69118020205940
C            1.73271637319025        1.68258947888419       -2.59059775737871
C            1.68964828947977        1.90712164070819       -3.96063589371646
C            2.86354508079594        2.21997080028526       -4.61662429948711
C            4.06665974986135        2.32274959071918       -3.92080237440701
C            4.13443808756189        2.10280881529743       -2.55803246806651
C            2.96201826792553        1.76549517905509       -1.89627497750146
N            2.74535865235585        1.52112970281184       -0.55339048526607
C            3.72149528597369        1.52484630562900        0.45297526806979
C            3.52896407203177        2.26809178178766        1.61489206827434
C            4.49895211516037        2.26484618663292        2.60087137385966
C            5.66293557158521        1.53437244117106        2.44336714114432
C            5.86333523784931        0.79644947566991        1.27947547852502
N            7.03844537832768        0.05136038357070        1.10696690583369
C            8.32595842618755        0.52627999864950        1.26528144233804
C            8.76495488373435        1.80768971903267        1.56796217883066
C           10.12823689362784        2.02325013126651        1.63922646318884
C           11.04058222820492        0.99564318451369        1.40776234408822
C           10.61015025590483       -0.27576536217373        1.08357996520906
C            9.24435532488100       -0.51722632360680        1.00581617141240
C            8.46242083893535       -1.67822375341036        0.68225260401524
C            8.78804426847515       -2.98958318252038        0.35930133914933
C            7.76527125641916       -3.88574362256382        0.11955248541283
C            6.43170637005642       -3.49199914231643        0.21164194843680
C            6.08302424345607       -2.19352129777195        0.53181669602442
C            7.10665699143846       -1.28242448576985        0.75154226802898
C            4.89018568898908        0.79073882560340        0.28666332357030
C           -3.38060700987244        0.34475900976103       -1.96969553378323
C           -3.12905721621256       -0.72165395059339       -2.80022001968866
C           -3.73491859654698       -0.79152338489740       -4.05731827133937
C           -3.41767485146009       -1.97670908685650       -4.95740890700875
C           -4.17501566248945       -1.93329376668892       -6.28813581007239
C           -1.91196303641586       -1.97653773802340       -5.26361421527478
C           -3.80105969546457       -3.27616053441183       -4.23297954970334
C           -4.59635424810356        0.23503600960763       -4.43266740877542
C           -4.86107285371926        1.31220987345507       -3.60019812437076
C           -4.25134696517187        1.37102796252249       -2.36017997482763
H           -4.43319402649013        6.61597364600701        1.53615974623350
H           -5.82210787661681        5.75719197129930        2.22794343672456
H           -4.61084324355395        6.47655812612106        3.28186379673748
H           -2.35163558950963        5.59347636153272        3.46340557670216
H           -1.85231730789672        4.12372840173255        2.62889757409329
H           -2.10689372873461        5.60749491335250        1.71364996641347
H           -4.36524108995385        4.33892076373431        4.44561566649898
H           -3.86370431463068        2.87488824070293        3.60265539926450
H           -5.48798448180728        3.51354639852111        3.36093209283295
H           -5.45013004825321        5.20365816345370        0.06381208723886
H           -5.65063509478253        3.89211881276693       -1.97510844714436
H           -2.75851042993377        2.30912315604155        1.71419280828532
H           -5.06435766404488        0.41820343223675        0.98063900200154
H           -7.27469279408702       -0.46640654337334        0.97793879146533
H           -9.36074143358633       -0.35875018956593        2.33421272117714
H           -9.34401155919832       -1.36237452750368        4.62424636414741
H           -5.43384117917499       -2.44641328726585        4.30565103761879
H           -4.47638409099368       -3.56364842663644        2.40586215180023
H           -3.79496240210267       -5.39840077113759        1.02573129907933
H           -2.33447230301784       -7.41088109855585        1.12611202598261
H            0.13977902052483       -7.07995127748358        1.27257531673448
H           -0.23235940384564       -3.02684390531003        1.29241186383163
H           -1.60127370408088       -1.77498869097925       -0.19684021788100
H           -1.20617167115616        0.43346983742204        1.56395002466877
H            1.20518190964287        0.83659167251086        1.73334910363629
H           -1.14172591293823        1.21730154683201       -2.64133199559947
H            0.75358993357575        1.84213051303302       -4.49523725838951
H            2.85313555093436        2.39659380889698       -5.68224438100807
H            4.96693183333739        2.58351983814802       -4.45802602185316
H            5.07022449578399        2.20203273341530       -2.02890740344083
H            2.62973794079761        2.85296748750951        1.73146811504782
H            4.34619910511082        2.83860208225916        3.50261277210180
H            6.41153247126946        1.51987601663238        3.22035802335530
H            8.06721892554481        2.61499087081561        1.73261282239936
H           10.49492753515817        3.01152581028601        1.87609199285705
H           12.09848085352245        1.20354923572644        1.47513531892091
H           11.31755529443892       -1.06813259912957        0.88918461937460
H            9.82122286251238       -3.29847643310384        0.30282397494340
H            7.99714095238603       -4.90968709888748       -0.13484458154270
H            5.65170079167027       -4.21799396483630        0.03385789099399
H            5.04592062016690       -1.90640941292854        0.61763904905803
H            5.04290656793116        0.21526288225000       -0.61354829825883
H           -2.45328620594751       -1.49795193543781       -2.47579523563765
H           -3.91356380744900       -2.80750375566238       -6.88134167529220
H           -5.25079160438023       -1.94618037637785       -6.12736609255086
H           -3.90966954383714       -1.04831796117437       -6.86224351155681
H           -1.66197826698567       -2.81124855164677       -5.91531936104905
H           -1.32128769907929       -2.06533342919912       -4.35560599818721
H           -1.62945066492321       -1.05211006539150       -5.76423043497260
H           -3.23966823702720       -3.39987984902610       -3.31067832285163
H           -4.86162033919556       -3.27164937722791       -3.98775905381543
H           -3.59790849945490       -4.13366478822857       -4.87133467070312
H           -5.08083607770288        0.21116783648220       -5.39527057240618
H           -5.53475084595633        2.09299816710225       -3.92260456180635
