125
 energy: -182.790754152997 gnorm: 0.000096834942 xtb: 6.7.1 (edcfbbe)
C           -4.75897371589980        5.94799846817713        2.34122078310997
C           -3.94877903668488        4.64810244334723        2.33582133248154
C           -2.46932152495412        5.00767869550127        2.54086120756439
C           -4.43863086543249        3.77348770167690        3.50060616420439
C           -4.09572296657723        3.86438485601584        1.04036492963130
C           -4.91694556929489        4.27853904118977       -0.00586530801244
C           -5.04611349926958        3.54140538401610       -1.17220901877823
C           -4.34070408675943        2.35762164308934       -1.30343624254693
C           -3.51270771190856        1.92615488998774       -0.25552666925761
C           -3.38619967237583        2.66977798820850        0.89373374864710
C           -2.84290661694420        0.61063005161878       -0.60852913900121
C           -3.27546255636829       -0.54520514090512        0.27946651147803
C           -4.45225897740337       -0.47773394431804        0.99699855365982
C           -4.88758317888767       -1.58263233052858        1.78850320069344
C           -6.13800693819292       -1.52809806374591        2.49689687972214
C           -7.21255461401562       -0.68153073748423        2.11261360614387
C           -8.37001731640723       -0.64791892884593        2.85134423719853
C           -8.48766091760952       -1.47407791216894        3.96864405100648
N           -7.47536483430398       -2.24978835861195        4.35351663413872
C           -6.36428377173424       -2.27975348531552        3.67223457993822
C           -4.08022224916831       -2.71823987798026        1.82605306799617
C           -2.89494053033455       -2.80873992215415        1.10766890925988
C           -2.07423004777177       -3.99634960767169        1.17408534518170
C           -2.59849272539486       -5.28537069498569        1.42326474636756
C           -1.75831201187624       -6.37078455520677        1.51045401217389
C           -0.39018330788209       -6.18148898512097        1.32669106308631
N            0.11756727166595       -4.97240131251629        1.10815470788620
C           -0.67243964374222       -3.93223354514748        1.03628965542033
C           -2.49787208265711       -1.69309593052308        0.31919657377924
C           -1.34555453797587        0.82074744813906       -0.57292979438783
C           -0.67029337600254        0.71949623754623        0.65065263860146
C            0.68908270545767        0.94054340234053        0.75754788268700
C            1.38659712504336        1.27913194043390       -0.39430893800818
C            0.72294245283024        1.37122153833046       -1.64133750882575
C           -0.64480126632653        1.15547722089286       -1.72281929475827
C            1.73040081754876        1.68027372196289       -2.61782472184042
C            1.69615869213099        1.90257599095106       -3.98793793558737
C            2.87866623870514        2.20707612061492       -4.63833436727917
C            4.07867683027965        2.30327315645832       -3.93896940345910
C            4.13731316097457        2.08371325037149       -2.57262853880744
C            2.95926065923699        1.75489685411234       -1.91909333527528
N            2.73328375179682        1.51204910710343       -0.57589582812407
C            3.70414955445840        1.51475520217710        0.43357545034589
C            3.50647050756417        2.26186243274640        1.59457640261858
C            4.47351473391221        2.26214270567859        2.58287737090945
C            5.63753702333356        1.52966723869607        2.43259293369929
C            5.84117363460147        0.78533326247331        1.27108148965619
N            7.01258940665255        0.03386058227505        1.11022467267739
C            8.30093345231411        0.50094243289439        1.28424929246191
C            8.74364918280930        1.78042685044392        1.59078782343999
C           10.10799808439835        1.98760335851807        1.67793841690047
C           11.01566440433789        0.95391499589716        1.45774093415321
C           10.58123250960831       -0.31646071712809        1.12872607264576
C            9.21571509523783       -0.54899963805774        1.03555725329928
C            8.42926063115839       -1.70583246283927        0.70324172606013
C            8.74932227723115       -3.01879864652533        0.38517730552361
C            7.72151663475464       -3.90891815410758        0.13600912596340
C            6.38991410187497       -3.50714850466691        0.21478573165392
C            6.04673972798201       -2.20516566107914        0.52955269013322
C            7.07496942725891       -1.30081837957713        0.75729087548954
C            4.87346307286453        0.77912572896390        0.27325554843711
C           -3.39215454330714        0.36179936019235       -1.99928048442090
C           -3.14118172066819       -0.69743131577560       -2.83901217602069
C           -3.75929372649692       -0.76421535954720       -4.09048420867030
C           -3.44563765014408       -1.94265421204191       -4.99979134333862
C           -4.20641183112218       -1.88989492843913       -6.32825473217976
C           -1.94067148919934       -1.94243400544199       -5.31018206358654
C           -3.82832906690546       -3.24597484773951       -4.28195215284469
C           -4.63287100102827        0.25889222381444       -4.45198651311603
C           -4.89808911258551        1.32828832714296       -3.61139483375543
C           -4.27500719533828        1.38497808801394       -2.37656033183151
H           -4.44044574038846        6.61102090280101        1.53983817065541
H           -5.82324791923709        5.74799138158906        2.23882819366281
H           -4.60576567921889        6.46502992240616        3.28652568921173
H           -2.34925918239738        5.58475062756194        3.45546975052407
H           -1.85032454356965        4.11793043884176        2.61601571236946
H           -2.10870652686019        5.60439001583974        1.70502891723786
H           -4.35114420735298        4.31623288851276        4.43960781935257
H           -3.85989048130193        2.85708376546134        3.58107182708574
H           -5.48289957312522        3.50185999051978        3.35573494485346
H           -5.47630836787630        5.19624068424378        0.07583923780301
H           -5.68997363393863        3.89090304941028       -1.96635271185081
H           -2.74521904850404        2.31488300890651        1.68547566021375
H           -5.04532121058262        0.42190369081848        0.97612735595909
H           -7.13164247260280       -0.09292073240273        1.21120874129898
H           -9.19842405418245       -0.01906218733542        2.56057497602795
H           -9.38804468807255       -1.52727730657699        4.56131822804922
H           -5.57631862186698       -2.88979256720236        4.09462912251962
H           -4.39123708785678       -3.56075110329260        2.42608504151806
H           -3.66697988388351       -5.41886742115024        1.51127386250280
H           -2.14583853405955       -7.36241475753726        1.68995498013682
H            0.31376705373558       -7.00022251987570        1.34797366076645
H           -0.17514683488066       -2.98078580315008        0.90194998176184
H           -1.58366110619439       -1.74748035986966       -0.24993662964476
H           -1.22620915126591        0.43942444152136        1.53283151557943
H            1.18896943622228        0.83547569898678        1.70834949659583
H           -1.15202399253340        1.23525358260350       -2.67183796312322
H            0.76355954926484        1.84307481382147       -4.52831996299369
H            2.87308505158744        2.38202930670022       -5.70407251628561
H            4.98324276962821        2.55744598528234       -4.47109105000503
H            5.07056692043193        2.17825228107236       -2.03893681674533
H            2.60845941793380        2.84954030783250        1.70425304860334
H            4.31812446983606        2.83929745496033        3.48172267400231
H            6.38114829641841        1.51401318016382        3.21401868958308
H            8.04944404132289        2.59226062943323        1.74604620390243
H           10.47804092253106        2.97344610504885        1.91844825688114
H           12.07393553037112        1.15448660765455        1.53736413132190
H           11.28635409626376       -1.11257772217999        0.94304799590892
H            9.78033200555024       -3.33564638417769        0.33949297644860
H            7.94953238461830       -4.93450291834507       -0.11445071971247
H            5.60687072978096       -4.22813235904434        0.03142545568248
H            5.01077458447859       -1.91224388315503        0.60645444285866
H            5.02811875411023        0.19973371710862       -0.62398009135378
H           -2.46133748027587       -1.47309762083163       -2.52170915780683
H           -3.94379116902210       -2.75841368077483       -6.92917367478136
H           -5.28168292656243       -1.90810811779287       -6.16492951198308
H           -3.94540301339469       -0.99906442587823       -6.89525109663894
H           -1.69472474489187       -2.77297405139185       -5.96859789469498
H           -1.34836538854591       -2.04004195831551       -4.40429000471703
H           -1.65839699840895       -1.01479349680710       -5.80484155321259
H           -3.27064596499963       -3.37216630361993       -3.35769549488657
H           -4.88953733085204       -3.24498256712020       -4.03938499674966
H           -3.62148518959380       -4.10055778283277       -4.92305231164266
H           -5.12709668491882        0.23524904910214       -5.40955327191899
H           -5.58211121971671        2.10501899986165       -3.92131639860963
