125
 energy: -182.896023088256 gnorm: 0.000130898176 xtb: 6.7.1 (edcfbbe)
C           -2.01671308020129        5.17475367639117        0.12800961360045
C           -2.06800840010899        5.05319680710800       -1.39832484861634
C           -3.37749613011322        5.69298492995160       -1.88428400904504
C           -0.86855849017309        5.81816018376514       -1.97776145128084
C           -2.01395019042020        3.60860724733650       -1.87395089271113
C           -2.04326129731771        3.33749576801669       -3.24257730945717
C           -1.99469303235924        2.04799410544704       -3.74148339828025
C           -1.92044207541481        0.98946594618553       -2.85152100723546
C           -1.89975904280094        1.24553840019761       -1.47562132624802
C           -1.93814725786480        2.53459089219690       -0.98933440354585
C           -1.82069922499352       -0.05044227412897       -0.68900614604522
C           -3.06945195042802       -0.32943950689380        0.12478931992093
C           -3.03222914846459       -1.26058711747597        1.15440073803632
C           -4.17970366887072       -1.57577233448374        1.87518144928128
C           -4.12137183584771       -2.55767486625302        2.96655677160605
C           -5.13161873137975       -3.49851421827831        3.16255433597270
C           -5.02562943618484       -4.39918374217739        4.20801866737114
C           -3.90707009580893       -4.33273882733101        5.02542030506555
N           -2.94130696128100       -3.44351461103490        4.85673404359177
C           -3.04878780711077       -2.58434907977845        3.86037963162284
C           -5.37875206260849       -0.94768295918553        1.55456209405308
C           -5.43468572284716       -0.02069254266581        0.51996299454101
C           -6.70004989264985        0.64303675761852        0.17851374867930
C           -7.07254285023409        0.87120995280203       -1.14598195421944
C           -8.27697898269543        1.49843795860468       -1.41264057682597
C           -9.07585688721051        1.87687551044363       -0.34370508223456
N           -8.73451318986235        1.67543186916472        0.91915371062102
C           -7.58288015754881        1.07996961326013        1.16793039733159
C           -4.27580331746479        0.27636220166871       -0.19258496889368
C           -0.57326788823857       -0.02113628443959        0.17203804497333
C            0.63361539259671       -0.54024803662511       -0.30299993663030
C            1.79638364246921       -0.49184270323395        0.44229399663341
C            1.74831594342060        0.10906409572515        1.69122628874637
C            0.53566791600862        0.63959806480743        2.18662006750380
C           -0.61869379375020        0.57919540624178        1.42083469560743
C            0.81447397850036        1.14105110975356        3.50339602683683
C            0.04321173943213        1.78033695995366        4.46554975586984
C            0.64356979906712        2.15810315331019        5.65020672052878
C            1.99793246103704        1.91855309337610        5.87454522104403
C            2.78502797644932        1.28318370305390        4.93270557827740
C            2.18200318874578        0.87988681432710        3.74961902408324
N            2.73542012295187        0.25846273621109        2.64617843142928
C            4.06230785465578       -0.18135510350839        2.53722873354528
C            4.61938837945977       -0.97240039456663        3.53902106232944
C            5.92956637511189       -1.40078627196955        3.42747056077008
C            6.69255645155978       -1.05441862190127        2.32705891951704
C            6.13632764349529       -0.27267117348621        1.31762926963180
N            6.90485494728761        0.08386713150802        0.19993098347784
C            7.08994029633693        1.36562456915674       -0.28164447154109
C            6.59860193424009        2.57144398663106        0.19870318927354
C            6.96661349826637        3.72817553436196       -0.46216290198009
C            7.81032608020908        3.69628123227081       -1.57073679362751
C            8.31992750713839        2.50189035072221       -2.04020766463261
C            7.96381971979192        1.32538300672348       -1.39295623753187
C            8.31373438313531       -0.05428999806876       -1.58809740059618
C            9.11272554913596       -0.71705351508048       -2.51133775239284
C            9.22398303450944       -2.09075493131733       -2.42528616218179
C            8.53939755525886       -2.80484125661600       -1.44368555677840
C            7.73851919535105       -2.16809610737428       -0.51465554762176
C            7.64275734359923       -0.78501956179177       -0.58052837799458
C            4.82091937961623        0.16468550564291        1.42465099163392
C           -1.78167658073585       -1.07545243798638       -1.80894783168065
C           -1.71838029200629       -2.44835794579179       -1.70444126959856
C           -1.71731665925595       -3.23327050871476       -2.85587396658339
C           -1.64283342139828       -4.75254345844059       -2.80617224017768
C           -2.89792635493134       -5.33800226095007       -3.47077552494322
C           -0.38882813386867       -5.22040487503547       -3.56025163438960
C           -1.56625842092456       -5.29342715342767       -1.37479878585824
C           -1.78922436889980       -2.59241589233182       -4.09341861561484
C           -1.86054485281249       -1.21566734321902       -4.20918925874537
C           -1.85798194409229       -0.44690200530177       -3.05729022333184
H           -2.86653036831788        4.67679927517508        0.59029557501721
H           -1.09569454669501        4.75293857574788        0.52485614217237
H           -2.05251827341427        6.22587884842529        0.40795821350078
H           -3.43893292547010        6.72443173409274       -1.54323262024421
H           -3.44295165692564        5.68905771148734       -2.96893133914190
H           -4.23289852413537        5.14794507412584       -1.48863645008295
H           -0.87785756008341        6.84850591162429       -1.62802521467725
H           -0.89025744960851        5.82827131457173       -3.06406296137725
H            0.06280182997809        5.35345321344565       -1.65931746828951
H           -2.10361630908490        4.15397887703161       -3.94669161660649
H           -2.01493628193933        1.87469833675054       -4.80776526854783
H           -1.91243871920143        2.69239838055121        0.07581758513019
H           -2.10258019754100       -1.75230068207949        1.39880758636605
H           -5.97824134627725       -3.53269787597237        2.49150518482605
H           -5.79005081530399       -5.14073767184300        4.38210105010300
H           -3.77165985472139       -5.01749107661503        5.85257699050375
H           -2.24172822277837       -1.86703871372344        3.77869675780690
H           -6.27347289403675       -1.18208287625015        2.11206901302792
H           -6.43249510358760        0.54363223979887       -1.95303483563771
H           -8.59367869553144        1.68422270580608       -2.42745182243367
H          -10.03091384701318        2.36258779523360       -0.49678924484291
H           -7.34259888475615        0.95772915212583        2.21680166281497
H           -4.31377322843595        1.00524563914849       -0.98807488867916
H            0.65813936979646       -1.00011691787900       -1.27981260435374
H            2.70903732368354       -0.92291113953394        0.05939555747568
H           -1.54439286903919        0.97797408519401        1.80847481985777
H           -1.00301736363598        1.97886201409675        4.28545027940978
H            0.06133386969393        2.65387760609757        6.41305540281316
H            2.44356294572358        2.23878022538691        6.80509268993912
H            3.83658622569884        1.11643324953545        5.11140520104618
H            4.01912612361764       -1.25615830829353        4.38971837514610
H            6.36120914798417       -2.01045560444038        4.20695629521446
H            7.72051320138588       -1.37322900772423        2.24924284679128
H            5.95821914490361        2.61118078833974        1.06702122591504
H            6.59418200652651        4.67871297144840       -0.10861896776683
H            8.07342716839566        4.62215604912546       -2.06107176093955
H            8.98612000241383        2.47864314767783       -2.88976674736703
H            9.63143299058351       -0.16572895985680       -3.28145679397107
H            9.84303103108442       -2.62451645263543       -3.13153554656673
H            8.63375598047952       -3.88060629839372       -1.41051077180418
H            7.19946659035312       -2.73210890537417        0.23164131776689
H            4.38894609418244        0.77278929393998        0.64443189994245
H           -1.66447089062198       -2.89652296403438       -0.72641420354798
H           -3.79211279794890       -4.99175034795943       -2.95556021166506
H           -2.96980095000426       -5.04233160154599       -4.51390676694854
H           -2.87257564887845       -6.42491780298170       -3.42605332532538
H           -0.31090597551248       -6.30494977734845       -3.51947089421843
H            0.50422300285311       -4.79312033615119       -3.10781947119132
H           -0.41797126768946       -4.92109848519443       -4.60438285581375
H           -1.51404146334721       -6.38019980276154       -1.40156445538113
H           -0.67793166691769       -4.92784493067284       -0.86417227010240
H           -2.44772669979014       -5.01424630171519       -0.80117342767179
H           -1.79139855074756       -3.18036112713572       -4.99915409346284
H           -1.91693285796929       -0.75260660093457       -5.18375062780578
