  58
  -91.8211061674000       0.359270938265890      !
 N          5.7925690999       -3.9736411949        0.1089969368
 C          5.9917625125       -2.8355976590        0.0721756500
 C          6.2995270370       -1.4791606814        0.0297234093
 C          7.6712971002       -1.2449406292        0.0153092850
 N          8.8200070742       -1.1188545517        0.0047169038
 C          5.3197127254       -0.4491749453        0.0042469154
 C          5.5701011135        0.9730857379       -0.0219584623
 C          6.7519247509        1.7021614908       -0.0352907466
 C          6.6840983949        3.0868215902       -0.0584296044
 C          5.4620429709        3.7526593544       -0.0697030939
 C          4.2732559126        3.0438802259       -0.0582588994
 C          4.3214482442        1.6574952996       -0.0348924436
 C          3.2791353991        0.6707127621       -0.0252765977
 C          1.9111734476        0.7868012974       -0.0347721994
 C          1.1095844949       -0.3636358913        0.0049851902
 C         -0.3306845764       -0.2697980441        0.0086804285
 C         -1.1304372330       -1.2554214955        0.6174277709
 C         -2.4986654808       -1.1684700259        0.6216612010
 C         -3.1504138282       -0.0871193973        0.0089187280
 N         -4.5313031211       -0.0038784361        0.0039839627
 C         -5.3107155085       -1.1704540742       -0.0160434216
 C         -6.4783447102       -1.2475172277        0.7435522539
 C         -7.2461154284       -2.3953601582        0.7153284185
 C         -6.8629839218       -3.4757351128       -0.0641696600
 C         -5.7046088643       -3.4017309136       -0.8218930618
 C         -4.9305234628       -2.2580315273       -0.8033569454
 C         -5.1727584188        1.2426850348        0.0173462612
 C         -4.6667500140        2.2891540251        0.7897739372
 C         -5.3087105689        3.5120080382        0.8023100231
 C         -6.4593007227        3.7072576075        0.0543229730
 C         -6.9677004710        2.6685442676       -0.7100527702
 C         -6.3321281290        1.4425923832       -0.7330812114
 C         -2.3650933740        0.9035837079       -0.6008832457
 C         -0.9970752243        0.8124288631       -0.5967626311
 C          1.7474267464       -1.6372626965        0.0353772259
 C          3.1066544477       -1.7762777822        0.0224205631
 C          3.9174950537       -0.6269619917        0.0020858604
 H          7.7095211797        1.2070618069       -0.0283683380
 H          7.5998027521        3.6593335141       -0.0670475033
 H          5.4446291861        4.8322139664       -0.0866350486
 H          3.3243234054        3.5603499968       -0.0660899689
 H          1.4564124657        1.7662334188       -0.0271393438
 H         -0.6599319825       -2.0759258783        1.1364453448
 H         -3.0860247816       -1.9216589767        1.1265732587
 H         -6.7675758341       -0.4093807506        1.3611078193
 H         -8.1444152294       -2.4488679681        1.3113361327
 H         -7.4649445740       -4.3709326666       -0.0822298449
 H         -5.4052467165       -4.2359563327       -1.4380025721
 H         -4.0368766245       -2.1908958242       -1.4071248891
 H         -3.7815599411        2.1286637845        1.3883870039
 H         -4.9129436868        4.3135982016        1.4073266812
 H         -6.9582173345        4.6637978897        0.0684440682
 H         -7.8603645586        2.8156082246       -1.2987546641
 H         -6.7182486086        0.6366614846       -1.3403451923
 H         -2.8507218893        1.7258965379       -1.1061975391
 H         -0.4233136335        1.5649634032       -1.1152993799
 H          1.1331097470       -2.5245650437        0.0226172839
 H          3.5533304593       -2.7572303101        0.0255753870
  58
  -91.8209373411000       0.300493368877838      !
 N          5.8706275428       -1.6451223032        3.5712718092
 C          6.0459231915       -1.1470500601        2.5429051861
 C          6.3245687343       -0.5566766131        1.3141959990
 C          7.6894362453       -0.3859507519        1.1017421627
 N          8.8335760899       -0.2710901807        0.9852564449
 C          5.3238047860       -0.1743445712        0.3783828324
 C          5.5453472662        0.4141445094       -0.9216178741
 C          6.7108973779        0.7617039516       -1.5922239591
 C          6.6139743784        1.3294954562       -2.8534791232
 C          5.3789959661        1.5525543815       -3.4556427043
 C          4.2062389445        1.2102762572       -2.8052504282
 C          4.2836435847        0.6423292184       -1.5416362626
 C          3.2628376350        0.1969611275       -0.6371908209
 C          1.8932276298        0.1912990925       -0.7365371731
 C          1.1168569084       -0.2585141745        0.3403261725
 C         -0.3253196084       -0.2323457142        0.2711052458
 C         -1.1112726129       -0.0031016065        1.4147175633
 C         -2.4790179292        0.0685802644        1.3419046240
 C         -3.1420169941       -0.1079861234        0.1172598390
 N         -4.5190837711       -0.0242394644        0.0346859209
 C         -5.1390617137        0.4015180769       -1.1507142729
 C         -4.6005588403        1.4518829686       -1.8947811741
 C         -5.2211728069        1.8634572830       -3.0581915226
 C         -6.3820903723        1.2415405747       -3.4907577993
 C         -6.9241974179        0.2030354640       -2.7495503720
 C         -6.3105647500       -0.2184869101       -1.5860583731
 C         -5.3280043773       -0.3438251576        1.1362490547
 C         -5.0288532145       -1.4437054600        1.9408009377
 C         -5.8344785286       -1.7483562829        3.0208903682
 C         -6.9441384405       -0.9692993803        3.3093965616
 C         -7.2481250363        0.1200525540        2.5077379942
 C         -6.4483729316        0.4353406959        1.4267503550
 C         -2.3687089174       -0.3671025551       -1.0258141140
 C         -1.0008552421       -0.4168121049       -0.9489706166
 C          1.7759786860       -0.7312147560        1.5102610445
 C          3.1382156648       -0.7707869592        1.6150461832
 C          3.9258525496       -0.2971615552        0.5497689110
 H          7.6782856790        0.5969734122       -1.1459029511
 H          7.5168452131        1.6054260070       -3.3780664092
 H          5.3390004771        1.9990884272       -4.4380147956
 H          3.2470196053        1.3852895512       -3.2705778459
 H          1.4150909613        0.5836823664       -1.6219464841
 H         -0.6277879917        0.1776109382        2.3624117496
 H         -3.0543783673        0.2963399368        2.2273758412
 H         -3.7063924642        1.9479475657       -1.5452112293
 H         -4.7995428119        2.6796033180       -3.6251878085
 H         -6.8626799865        1.5657772478       -4.4007221802
 H         -7.8255269615       -0.2881006522       -3.0833903153
 H         -6.7230015017       -1.0369867048       -1.0138540855
 H         -4.1741131391       -2.0605476440        1.7027909679
 H         -5.5983272616       -2.6039470611        3.6353600881
 H         -7.5700110813       -1.2109194874        4.1543754322
 H         -8.1082560297        0.7333577781        2.7296337773
 H         -6.6749602153        1.2921562310        0.8083906363
 H         -2.8635774074       -0.5524694888       -1.9681161399
 H         -0.4337110551       -0.6494811535       -1.8372816533
 H          1.1758298546       -1.1140328093        2.3219049035
 H          3.6047553043       -1.1586250625        2.5059567668
  58
  -91.8205922190000       0.208558433979211      !
 N          5.8031759563       -3.5039821176       -1.8681184367
 C          5.9991710972       -2.5054164882       -1.3193903832
 C          6.3041136148       -1.3155227021       -0.6654650461
 C          7.6747874485       -1.1226915534       -0.5201903925
 N          8.8223496078       -1.0215735378       -0.4277307818
 C          5.3217616637       -0.4011452263       -0.1950241626
 C          5.5683739444        0.8518351805        0.4800326698
 C          6.7479657423        1.4962817994        0.8288858021
 C          6.6761096448        2.7166623184        1.4831834051
 C          5.4522193756        3.3023986863        1.7928666546
 C          4.2655558246        2.6768704493        1.4519878450
 C          4.3178293164        1.4553646769        0.7960499192
 C          3.2784255221        0.5914563275        0.3131973541
 C          1.9102029393        0.6978785535        0.3545015308
 C          1.1104544591       -0.3235950370       -0.1786927981
 C         -0.3309579108       -0.2426778397       -0.1348485483
 C         -1.1316011324       -1.3995230679       -0.1009507167
 C         -2.5000088681       -1.3251914902       -0.0479975201
 C         -3.1496276121       -0.0813711006       -0.0518223513
 N         -4.5309367837       -0.0017411106       -0.0175202578
 C         -5.2844602036       -0.9759888036        0.6536520006
 C         -4.8432032852       -1.4922779300        1.8727623567
 C         -5.5945578538       -2.4455974856        2.5317578969
 C         -6.7902540418       -2.8922041958        1.9909180667
 C         -7.2334602471       -2.3785859588        0.7820263993
 C         -6.4889677990       -1.4268868438        0.1128654424
 C         -5.1988861652        1.0525454714       -0.6575340563
 C         -6.3197939045        1.6352002802       -0.0651312078
 C         -6.9802859290        2.6673704585       -0.7025455546
 C         -6.5350064160        3.1317992288       -1.9304458179
 C         -5.4227805091        2.5539938528       -2.5228749893
 C         -4.7564292154        1.5192081610       -1.8961922015
 C         -2.3636195452        1.0805590412       -0.0937044326
 C         -0.9951693318        0.9980292726       -0.1219924178
 C          1.7514353176       -1.4476099603       -0.7752242001
 C          3.1112374710       -1.5632615883       -0.8466860285
 C          3.9199561913       -0.5529592549       -0.2954734105
 H          7.7070479000        1.0618773762        0.5974530738
 H          7.5901265180        3.2221223590        1.7578278074
 H          5.4317571890        4.2533391858        2.3040295833
 H          3.3151127502        3.1308336005        1.6925351735
 H          1.4546610299        1.5468654459        0.8420259372
 H         -0.6629966196       -2.3713868658       -0.0899991645
 H         -3.0893231862       -2.2303515682       -0.0262937721
 H         -3.9200463828       -1.1291405925        2.3013025974
 H         -5.2480282979       -2.8349670589        3.4770440671
 H         -7.3743900935       -3.6362201265        2.5099081669
 H         -8.1609579557       -2.7261302881        0.3530224329
 H         -6.8254340712       -1.0355034439       -0.8364356720
 H         -6.6566788013        1.2811497303        0.8986116216
 H         -7.8428958413        3.1161265225       -0.2338110906
 H         -7.0530474943        3.9391531435       -2.4243677643
 H         -5.0762199818        2.9044603957       -3.4832868473
 H         -3.9007603775        1.0545434592       -2.3649460753
 H         -2.8464683517        2.0469683117       -0.0830972724
 H         -0.4197372629        1.9099537878       -0.1621766068
 H          1.1403984739       -2.2114320308       -1.2311929708
 H          3.5596953266       -2.4182787973       -1.3259337630
  58
  -91.8201576437000       0.131677258877062      !
 N          5.7165939652       -2.9011635594        2.7456523439
 C          5.9323073135       -2.1084390723        1.9322290559
 C          6.2604997363       -1.1585294884        0.9699748442
 C          7.6335231933       -1.0568242233        0.7690052026
 N          8.7821795492       -1.0265576008        0.6429116957
 C          5.2976391102       -0.3706059012        0.2795537541
 C          5.5705956216        0.6737848810       -0.6781446024
 C          6.7635933673        1.1690125908       -1.1883945833
 C          6.7184423247        2.1868352534       -2.1288950993
 C          5.5077438212        2.7193950949       -2.5631146447
 C          4.3081664399        2.2437289838       -2.0625138444
 C          4.3327706616        1.2234921775       -1.1218807418
 C          3.2758119713        0.5292501099       -0.4447310224
 C          1.9078342198        0.6601306940       -0.5012744657
 C          1.0970012856       -0.2208522865        0.2228058775
 C         -0.3471662352       -0.1408159507        0.1542377346
 C         -1.1322280959       -1.3050628372        0.1840674691
 C         -2.5007866709       -1.2437693017        0.1043492005
 C         -3.1526943738       -0.0048015698        0.0449361560
 N         -4.5412618292        0.0567439166        0.0008544256
 C         -5.2480796661       -0.8925406956       -0.7474024295
 C         -6.4574651188       -1.4125395541       -0.2846195242
 C         -7.1404970987       -2.3471521662       -1.0381904602
 C         -6.6313346974       -2.7771370316       -2.2537326872
 C         -5.4294902018       -2.2638372566       -2.7163337988
 C         -4.7395618401       -1.3269005886       -1.9732458336
 C         -5.2251085041        1.0276497815        0.7396951972
 C         -6.4067782010        1.5892086079        0.2528401746
 C         -7.0880981588        2.5258429862        1.0050884081
 C         -6.6032713383        2.9197166887        2.2427449494
 C         -5.4250260470        2.3716926477        2.7255953053
 C         -4.7374562623        1.4313700087        1.9844754623
 C         -2.3816089530        1.1649586319        0.0325108043
 C         -1.0100564674        1.0933838839        0.0587922534
 C          1.7096199685       -1.2138570355        1.0362278249
 C          3.0672276644       -1.3261824726        1.1502689635
 C          3.8925754151       -0.4654835033        0.4054901911
 H          7.7121639775        0.7711359046       -0.8656689085
 H          7.6426713254        2.5722129012       -2.5334139969
 H          5.5081070294        3.5091480870       -3.2995148249
 H          3.3685100382        2.6549338774       -2.4018794961
 H          1.4590303058        1.4015469234       -1.1463825607
 H         -0.6490136193       -2.2686880896        0.2395891101
 H         -3.0881413587       -2.1505090834        0.1152121713
 H         -6.8447035841       -1.0915513512        0.6716195786
 H         -8.0718930040       -2.7488673209       -0.6690821592
 H         -7.1679740905       -3.5085652847       -2.8377216635
 H         -5.0302616383       -2.5882848987       -3.6652754471
 H         -3.8110855160       -0.9126205037       -2.3392695671
 H         -6.7766385025        1.2931037504       -0.7181881681
 H         -8.0003867090        2.9552661964        0.6197701241
 H         -7.1409167062        3.6490261747        2.8284767377
 H         -5.0445839620        2.6681973205        3.6912900230
 H         -3.8319864828        0.9856688401        2.3706633913
 H         -2.8770174996        2.1238533974       -0.0199135304
 H         -0.4318535898        2.0049707742        0.0403465233
 H          1.0759977236       -1.8623677111        1.6224761063
 H          3.5000345799       -2.0679320504        1.8014687873
