  58
        -92.14557167
 N          5.7925690999       -3.9736411949        0.1089969368
 C          5.9917625125       -2.8355976590        0.0721756500
 C          6.2995270370       -1.4791606814        0.0297234093
 C          7.6712971002       -1.2449406292        0.0153092850
 N          8.8200070742       -1.1188545517        0.0047169038
 C          5.3197127254       -0.4491749453        0.0042469154
 C          5.5701011135        0.9730857379       -0.0219584623
 C          6.7519247509        1.7021614908       -0.0352907466
 C          6.6840983949        3.0868215902       -0.0584296044
 C          5.4620429709        3.7526593544       -0.0697030939
 C          4.2732559126        3.0438802259       -0.0582588994
 C          4.3214482442        1.6574952996       -0.0348924436
 C          3.2791353991        0.6707127621       -0.0252765977
 C          1.9111734476        0.7868012974       -0.0347721994
 C          1.1095844949       -0.3636358913        0.0049851902
 C         -0.3306845764       -0.2697980441        0.0086804285
 C         -1.1304372330       -1.2554214955        0.6174277709
 C         -2.4986654808       -1.1684700259        0.6216612010
 C         -3.1504138282       -0.0871193973        0.0089187280
 N         -4.5313031211       -0.0038784361        0.0039839627
 C         -5.3107155085       -1.1704540742       -0.0160434216
 C         -6.4783447102       -1.2475172277        0.7435522539
 C         -7.2461154284       -2.3953601582        0.7153284185
 C         -6.8629839218       -3.4757351128       -0.0641696600
 C         -5.7046088643       -3.4017309136       -0.8218930618
 C         -4.9305234628       -2.2580315273       -0.8033569454
 C         -5.1727584188        1.2426850348        0.0173462612
 C         -4.6667500140        2.2891540251        0.7897739372
 C         -5.3087105689        3.5120080382        0.8023100231
 C         -6.4593007227        3.7072576075        0.0543229730
 C         -6.9677004710        2.6685442676       -0.7100527702
 C         -6.3321281290        1.4425923832       -0.7330812114
 C         -2.3650933740        0.9035837079       -0.6008832457
 C         -0.9970752243        0.8124288631       -0.5967626311
 C          1.7474267464       -1.6372626965        0.0353772259
 C          3.1066544477       -1.7762777822        0.0224205631
 C          3.9174950537       -0.6269619917        0.0020858604
 H          7.7095211797        1.2070618069       -0.0283683380
 H          7.5998027521        3.6593335141       -0.0670475033
 H          5.4446291861        4.8322139664       -0.0866350486
 H          3.3243234054        3.5603499968       -0.0660899689
 H          1.4564124657        1.7662334188       -0.0271393438
 H         -0.6599319825       -2.0759258783        1.1364453448
 H         -3.0860247816       -1.9216589767        1.1265732587
 H         -6.7675758341       -0.4093807506        1.3611078193
 H         -8.1444152294       -2.4488679681        1.3113361327
 H         -7.4649445740       -4.3709326666       -0.0822298449
 H         -5.4052467165       -4.2359563327       -1.4380025721
 H         -4.0368766245       -2.1908958242       -1.4071248891
 H         -3.7815599411        2.1286637845        1.3883870039
 H         -4.9129436868        4.3135982016        1.4073266812
 H         -6.9582173345        4.6637978897        0.0684440682
 H         -7.8603645586        2.8156082246       -1.2987546641
 H         -6.7182486086        0.6366614846       -1.3403451923
 H         -2.8507218893        1.7258965379       -1.1061975391
 H         -0.4233136335        1.5649634032       -1.1152993799
 H          1.1331097470       -2.5245650437        0.0226172839
 H          3.5533304593       -2.7572303101        0.0255753870
