  58
  -92.1455716700000       0.126269285562597      !
 N          5.7925690999       -3.9736411949        0.1089969368
 C          5.9917625125       -2.8355976590        0.0721756500
 C          6.2995270370       -1.4791606814        0.0297234093
 C          7.6712971002       -1.2449406292        0.0153092850
 N          8.8200070742       -1.1188545517        0.0047169038
 C          5.3197127254       -0.4491749453        0.0042469154
 C          5.5701011135        0.9730857379       -0.0219584623
 C          6.7519247509        1.7021614908       -0.0352907466
 C          6.6840983949        3.0868215902       -0.0584296044
 C          5.4620429709        3.7526593544       -0.0697030939
 C          4.2732559126        3.0438802259       -0.0582588994
 C          4.3214482442        1.6574952996       -0.0348924436
 C          3.2791353991        0.6707127621       -0.0252765977
 C          1.9111734476        0.7868012974       -0.0347721994
 C          1.1095844949       -0.3636358913        0.0049851902
 C         -0.3306845764       -0.2697980441        0.0086804285
 C         -1.1304372330       -1.2554214955        0.6174277709
 C         -2.4986654808       -1.1684700259        0.6216612010
 C         -3.1504138282       -0.0871193973        0.0089187280
 N         -4.5313031211       -0.0038784361        0.0039839627
 C         -5.3107155085       -1.1704540742       -0.0160434216
 C         -6.4783447102       -1.2475172277        0.7435522539
 C         -7.2461154284       -2.3953601582        0.7153284185
 C         -6.8629839218       -3.4757351128       -0.0641696600
 C         -5.7046088643       -3.4017309136       -0.8218930618
 C         -4.9305234628       -2.2580315273       -0.8033569454
 C         -5.1727584188        1.2426850348        0.0173462612
 C         -4.6667500140        2.2891540251        0.7897739372
 C         -5.3087105689        3.5120080382        0.8023100231
 C         -6.4593007227        3.7072576075        0.0543229730
 C         -6.9677004710        2.6685442676       -0.7100527702
 C         -6.3321281290        1.4425923832       -0.7330812114
 C         -2.3650933740        0.9035837079       -0.6008832457
 C         -0.9970752243        0.8124288631       -0.5967626311
 C          1.7474267464       -1.6372626965        0.0353772259
 C          3.1066544477       -1.7762777822        0.0224205631
 C          3.9174950537       -0.6269619917        0.0020858604
 H          7.7095211797        1.2070618069       -0.0283683380
 H          7.5998027521        3.6593335141       -0.0670475033
 H          5.4446291861        4.8322139664       -0.0866350486
 H          3.3243234054        3.5603499968       -0.0660899689
 H          1.4564124657        1.7662334188       -0.0271393438
 H         -0.6599319825       -2.0759258783        1.1364453448
 H         -3.0860247816       -1.9216589767        1.1265732587
 H         -6.7675758341       -0.4093807506        1.3611078193
 H         -8.1444152294       -2.4488679681        1.3113361327
 H         -7.4649445740       -4.3709326666       -0.0822298449
 H         -5.4052467165       -4.2359563327       -1.4380025721
 H         -4.0368766245       -2.1908958242       -1.4071248891
 H         -3.7815599411        2.1286637845        1.3883870039
 H         -4.9129436868        4.3135982016        1.4073266812
 H         -6.9582173345        4.6637978897        0.0684440682
 H         -7.8603645586        2.8156082246       -1.2987546641
 H         -6.7182486086        0.6366614846       -1.3403451923
 H         -2.8507218893        1.7258965379       -1.1061975391
 H         -0.4233136335        1.5649634032       -1.1152993799
 H          1.1331097470       -2.5245650437        0.0226172839
 H          3.5533304593       -2.7572303101        0.0255753870
  58
  -92.1455682000000       0.125806483025859      !
 N          5.8973356548        3.8251033768        0.3971967173
 C          6.0659651078        2.6864887196        0.2892241294
 C          6.3365345715        1.3277648979        0.1579829720
 C          7.7010900203        1.0544923145        0.1514168827
 N          8.8453729486        0.8923321140        0.1556818929
 C          5.3287478893        0.3311026609        0.0442909222
 C          5.5401688649       -1.0873455821       -0.1278646116
 C          6.7013049919       -1.8430310816       -0.2244021984
 C          6.5950414237       -3.2151229543       -0.3934289121
 C          5.3550562870       -3.8429265947       -0.4660973265
 C          4.1864328904       -3.1074716805       -0.3710039541
 C          4.2732385118       -1.7330913401       -0.2021467403
 C          3.2586547140       -0.7269033796       -0.0683487786
 C          1.8882021014       -0.8069977585       -0.0652245614
 C          1.1183265811        0.3587932430        0.0587957705
 C         -0.3238601655        0.3006108813        0.0516503475
 C         -1.0117826500       -0.8355556796        0.5178540865
 C         -2.3810129087       -0.9004767478        0.5094592093
 C         -3.1458375154        0.1720750113        0.0245501297
 N         -4.5272474026        0.1069621654        0.0082951288
 C         -5.1799528315       -1.1236167662       -0.1567134413
 C         -6.3379922197       -1.4054425345        0.5685965119
 C         -6.9814998407       -2.6158794180        0.3998673198
 C         -6.4828509915       -3.5568976936       -0.4875099854
 C         -5.3345079597       -3.2788799031       -1.2124009894
 C         -4.6842654801       -2.0707023505       -1.0537933762
 C         -5.2978299384        1.2696187316        0.1578685483
 C         -4.9175434055        2.2561969088        1.0684714459
 C         -5.6850248312        3.3954163746        1.2131997689
 C         -6.8365574112        3.5646598673        0.4603196176
 C         -7.2198535983        2.5842433397       -0.4416452275
 C         -6.4589174383        1.4419914702       -0.5962819895
 C         -2.4724429781        1.3113647674       -0.4425922279
 C         -1.1026400454        1.3720116590       -0.4242467106
 C          1.7895886173        1.6074189253        0.1980870998
 C          3.1522888564        1.7070731250        0.2221807088
 C          3.9318699057        0.5447808677        0.0789915357
 H          7.6722923273       -1.3779405460       -0.1697771806
 H          7.4944669928       -3.8079026704       -0.4710457132
 H          5.3077430142       -4.9135576953       -0.5987804896
 H          3.2234558735       -3.5939635268       -0.4283955500
 H          1.4065288608       -1.7634588143       -0.2042301077
 H         -0.4531536038       -1.6579328166        0.9374529223
 H         -2.8834901851       -1.7701268098        0.9076297133
 H         -6.7168472015       -0.6761344419        1.2700603540
 H         -7.8727975975       -2.8281662220        0.9704425013
 H         -6.9876262079       -4.5019229436       -0.6149082026
 H         -4.9465067049       -4.0032535647       -1.9123691228
 H         -3.7998330289       -1.8439385047       -1.6317508760
 H         -4.0297496920        2.1132774641        1.6676899800
 H         -5.3859078750        4.1507601554        1.9239379757
 H         -7.4330183500        4.4561342935        0.5768829990
 H         -8.1127181047        2.7125998068       -1.0344253766
 H         -6.7480998694        0.6826725009       -1.3085544053
 H         -3.0438881742        2.1333574842       -0.8487764096
 H         -0.6144621000        2.2435926288       -0.8318914700
 H          1.1987189950        2.5002230475        0.3351969201
 H          3.6254397088        2.6669414010        0.3510182241
  58
  -92.1455638900000       0.125234008800271      !
 N          5.8449744282        0.8972947976        3.8059440694
 C          6.0264427743        0.6218422490        2.6980776182
 C          6.3173084497        0.2913393508        1.3780653682
 C          7.6858212317        0.2242334283        1.1341790158
 N          8.8321547967        0.1841299439        0.9922300351
 C          5.3244121099        0.0517177779        0.3888995836
 C          5.5556648574       -0.3037898682       -0.9917924751
 C          6.7272660257       -0.4990258438       -1.7113521735
 C          6.6403859491       -0.8421136177       -3.0519833266
 C          5.4094162108       -0.9911100741       -3.6841191934
 C          4.2306086477       -0.8001672587       -2.9844314680
 C          4.2979146448       -0.4576193779       -1.6416205051
 C          3.2691651769       -0.1939182404       -0.6760823319
 C          1.8999730563       -0.2020175952       -0.7752973070
 C          1.1133331908        0.0732518804        0.3531424610
 C         -0.3279456551        0.0600071709        0.2777892773
 C         -1.1217732300       -0.2533112552        1.3974033691
 C         -2.4910724326       -0.2647387920        1.3267107122
 C         -3.1491382097        0.0424547404        0.1259566450
 N         -4.5309024104        0.0414924645        0.0529697737
 C         -5.1773983016       -0.3024459018       -1.1433403770
 C         -4.6942723596       -1.3497139527       -1.9289220997
 C         -5.3379067991       -1.6858238555       -3.1039344422
 C         -6.4668049194       -0.9903904926       -3.5079708833
 C         -6.9521502004        0.0475683347       -2.7276084118
 C         -6.3150592407        0.3941419575       -1.5522998319
 C         -5.3036372491        0.3987020955        1.1669844250
 C         -6.4960397826       -0.2733735518        1.4383120522
 C         -7.2617770898        0.0903925625        2.5287014387
 C         -6.8517937855        1.1205449405        3.3608008406
 C         -5.6677609026        1.7904722853        3.0944744046
 C         -4.8959378627        1.4378061213        2.0048125055
 C         -2.3699156384        0.3541192656       -0.9989438697
 C         -1.0012197605        0.3604191358       -0.9214769519
 C          1.7679253782        0.3757281766        1.5819020805
 C          3.1290802479        0.4109929007        1.6974591536
 C          3.9246826902        0.1171145512        0.5751716175
 H          7.6916122246       -0.3874851113       -1.2426104093
 H          7.5481520411       -0.9965750433       -3.6162176405
 H          5.3772119085       -1.2587567339       -4.7297957695
 H          3.2746405809       -0.9164423874       -3.4743097800
 H          1.4323728481       -0.4653388421       -1.7124227181
 H         -0.6462584173       -0.5386612645        2.3228737777
 H         -3.0748039643       -0.5418056444        2.1926234133
 H         -3.8249596115       -1.9022132079       -1.6023325146
 H         -4.9602779941       -2.5012433872       -3.7019963856
 H         -6.9667139070       -1.2567892163       -4.4262411330
 H         -7.8275418993        0.5964512266       -3.0397859499
 H         -6.6829363962        1.2119793030       -0.9495757986
 H         -6.8070302051       -1.0853991973        0.7969082895
 H         -8.1799350755       -0.4387466550        2.7337626798
 H         -7.4527846775        1.4014033940        4.2116735694
 H         -5.3469062945        2.5993747099        3.7330973644
 H         -3.9830865499        1.9721707776        1.7838792948
 H         -2.8605574714        0.6241474981       -1.9229043380
 H         -0.4318040796        0.6509186673       -1.7907939426
 H          1.1657789741        0.6295840790        2.4408925886
 H          3.5884269538        0.6633050255        2.6393260797
  58
  -92.1455602500000       0.124752556616152      !
 N          5.8065677634       -3.9694808627        0.0847312861
 C          6.0002823111       -2.8299934849        0.0650623786
 C          6.3031983647       -1.4719702480        0.0390858505
 C          7.6739803646       -1.2312510935        0.0376848775
 N          8.8219352941       -1.0962414455        0.0392415380
 C          5.3193992443       -0.4457032570        0.0154487729
 C          5.5635833312        0.9767329560       -0.0444175466
 C          6.7417973072        1.7103936463       -0.0886351168
 C          6.6674146458        3.0938839181       -0.1430993827
 C          5.4424627864        3.7543194314       -0.1529207575
 C          4.2571557778        3.0409256814       -0.1104034126
 C          4.3120097346        1.6556645107       -0.0568876235
 C          3.2742781107        0.6657336879        0.0007733484
 C          1.9061246619        0.7770282480        0.0110447509
 C          1.1085765423       -0.3765226891        0.0473065027
 C         -0.3317896732       -0.2864138407        0.0398581181
 C         -1.1312678033       -1.3145992104       -0.4946433909
 C         -2.4994621331       -1.2266212557       -0.5100326686
 C         -3.1510134674       -0.0994780154        0.0135326677
 N         -4.5315283838       -0.0088024422       -0.0001252034
 C         -5.3183095884       -1.1647641283        0.1124223445
 C         -4.9497244776       -2.1837466000        0.9917181656
 C         -5.7311456185       -3.3171948258        1.1020902634
 C         -6.8848132832       -3.4488717785        0.3449045199
 C         -7.2559685727       -2.4366848941       -0.5265129010
 C         -6.4812385946       -1.2994407824       -0.6463593682
 C         -5.1622108056        1.2370102961       -0.1246899912
 C         -6.3244600685        1.5109944453        0.5972145734
 C         -6.9467579361        2.7369880181        0.4656048746
 C         -6.4225828020        3.7018857093       -0.3804606869
 C         -5.2694093925        3.4324054874       -1.1010411955
 C         -4.6403312964        2.2089237614       -0.9796801753
 C         -2.3665476998        0.9320103943        0.5525616047
 C         -0.9989674927        0.8377351198        0.5629164637
 C          1.7519416226       -1.6470152482        0.0946164634
 C          3.1118347546       -1.7798812436        0.1045778913
 C          3.9181238288       -0.6286634695        0.0446472209
 H          7.7017128010        1.2199272120       -0.0799285654
 H          7.5803353789        3.6697850757       -0.1785035173
 H          5.4199516350        4.8331243903       -0.1949361779
 H          3.3058418276        3.5529531528       -0.1193714013
 H          1.4481811012        1.7527461472       -0.0547866871
 H         -0.6607148150       -2.1729177235       -0.9482420413
 H         -3.0866614776       -2.0156094956       -0.9572182570
 H         -4.0594142881       -2.0703847297        1.5935725604
 H         -5.4407125058       -4.0980909387        1.7884148541
 H         -7.4918873403       -4.3363453990        0.4339733379
 H         -8.1499948945       -2.5362972064       -1.1230482366
 H         -6.7610479220       -0.5151218453       -1.3348868379
 H         -6.7234393199        0.7628519252        1.2669466506
 H         -7.8417841860        2.9424273653        1.0329039465
 H         -6.9110832466        4.6588224479       -0.4790642753
 H         -4.8611675722        4.1758605728       -1.7687265785
 H         -3.7523506627        1.9894501341       -1.5550356488
 H         -2.8531356994        1.7910230025        0.9915405143
 H         -0.4264096219        1.6256450154        1.0273417935
 H          1.1419999350       -2.5342745349        0.1692219079
 H          3.5624768295       -2.7575382538        0.1595621844
  58
  -92.1455510700000       0.123546548957243      !
 N          5.8117134536       -0.7473230570        3.8678141240
 C          6.0064919685       -0.5540469657        2.7448703635
 C          6.3069070599       -0.3253228740        1.4055772132
 C          7.6769427097       -0.3176985420        1.1611697526
 N          8.8244218512       -0.3244230191        1.0227000860
 C          5.3220643802       -0.1211713310        0.4003154683
 C          5.5649699441        0.1291872344       -1.0011328300
 C          6.7426516031        0.2405830542       -1.7286015782
 C          6.6673988765        0.4862461759       -3.0910970366
 C          5.4419769204        0.6239845750       -3.7363712142
 C          4.2572617100        0.5185342287       -3.0286259455
 C          4.3127905245        0.2721579436       -1.6642851475
 C          3.2759795239        0.1183853671       -0.6839929639
 C          1.9073042155        0.1642117641       -0.7859970651
 C          1.1134443834       -0.0610306277        0.3476196799
 C         -0.3277127346       -0.0391234757        0.2655198780
 C         -1.1227217112       -0.8246203768        1.1206730987
 C         -2.4914724979       -0.8080128114        1.0438979535
 C         -3.1472291936        0.0082339705        0.1092249195
 N         -4.5281739567        0.0358955954        0.0402972717
 C         -5.1800676268        0.2852618430       -1.1761260941
 C         -4.6954471246       -0.2645466076       -2.3636311443
 C         -5.3491323067       -0.0197133185       -3.5554785565
 C         -6.4896138070        0.7677469451       -3.5803215927
 C         -6.9763081659        1.3118424031       -2.4019001242
 C         -6.3293542105        1.0759236363       -1.2047154382
 C         -5.3012994106       -0.1870176140        1.1900383349
 C         -4.9152033867        0.3555555120        2.4162630077
 C         -5.6833689257        0.1332478875        3.5424734281
 C         -6.8414585032       -0.6242781746        3.4620646827
 C         -7.2308884132       -1.1599603016        2.2442147507
 C         -6.4692218478       -0.9461204259        1.1120225527
 C         -2.3655998757        0.7969890489       -0.7494675795
 C         -0.9967960952        0.7674469059       -0.6737066502
 C          1.7568163975       -0.3106824705        1.5936148058
 C          3.1169041273       -0.3318411895        1.7233008198
 C          3.9209369336       -0.1291541219        0.5869874567
 H          7.7028073429        0.1390199252       -1.2491538387
 H          7.5798801408        0.5718724482       -3.6624264489
 H          5.4188479998        0.8138479027       -4.7991280108
 H          3.3056543410        0.6239985269       -3.5291701343
 H          1.4448348981        0.3256322154       -1.7485273435
 H         -0.6475610600       -1.4941479349        1.8207615824
 H         -3.0762438175       -1.4494447504        1.6871131641
 H         -3.8177508978       -0.8943606229       -2.3387552735
 H         -4.9704889831       -0.4541754265       -4.4681980503
 H         -6.9977856368        0.9548953551       -4.5134867952
 H         -7.8613216475        1.9295443529       -2.4152428672
 H         -6.6992860367        1.5096283247       -0.2868413489
 H         -4.0216704586        0.9606013399        2.4725569696
 H         -5.3796081059        0.5611302645        4.4857559560
 H         -7.4386894872       -0.7947238789        4.3443287950
 H         -8.1296104901       -1.7539415334        2.1761257073
 H         -6.7634635062       -1.3734195566        0.1641529029
 H         -2.8542071942        1.4561136554       -1.4524212644
 H         -0.4235080728        1.4173073598       -1.3168955710
 H          1.1458970694       -0.4413966635        2.4738369150
 H          3.5692124078       -0.5012977297        2.6868276072
  58
  -92.1453671600000       0.101697771100715      !
 N          5.8706275428       -1.6451223032        3.5712718092
 C          6.0459231915       -1.1470500601        2.5429051861
 C          6.3245687343       -0.5566766131        1.3141959990
 C          7.6894362453       -0.3859507519        1.1017421627
 N          8.8335760899       -0.2710901807        0.9852564449
 C          5.3238047860       -0.1743445712        0.3783828324
 C          5.5453472662        0.4141445094       -0.9216178741
 C          6.7108973779        0.7617039516       -1.5922239591
 C          6.6139743784        1.3294954562       -2.8534791232
 C          5.3789959661        1.5525543815       -3.4556427043
 C          4.2062389445        1.2102762572       -2.8052504282
 C          4.2836435847        0.6423292184       -1.5416362626
 C          3.2628376350        0.1969611275       -0.6371908209
 C          1.8932276298        0.1912990925       -0.7365371731
 C          1.1168569084       -0.2585141745        0.3403261725
 C         -0.3253196084       -0.2323457142        0.2711052458
 C         -1.1112726129       -0.0031016065        1.4147175633
 C         -2.4790179292        0.0685802644        1.3419046240
 C         -3.1420169941       -0.1079861234        0.1172598390
 N         -4.5190837711       -0.0242394644        0.0346859209
 C         -5.1390617137        0.4015180769       -1.1507142729
 C         -4.6005588403        1.4518829686       -1.8947811741
 C         -5.2211728069        1.8634572830       -3.0581915226
 C         -6.3820903723        1.2415405747       -3.4907577993
 C         -6.9241974179        0.2030354640       -2.7495503720
 C         -6.3105647500       -0.2184869101       -1.5860583731
 C         -5.3280043773       -0.3438251576        1.1362490547
 C         -5.0288532145       -1.4437054600        1.9408009377
 C         -5.8344785286       -1.7483562829        3.0208903682
 C         -6.9441384405       -0.9692993803        3.3093965616
 C         -7.2481250363        0.1200525540        2.5077379942
 C         -6.4483729316        0.4353406959        1.4267503550
 C         -2.3687089174       -0.3671025551       -1.0258141140
 C         -1.0008552421       -0.4168121049       -0.9489706166
 C          1.7759786860       -0.7312147560        1.5102610445
 C          3.1382156648       -0.7707869592        1.6150461832
 C          3.9258525496       -0.2971615552        0.5497689110
 H          7.6782856790        0.5969734122       -1.1459029511
 H          7.5168452131        1.6054260070       -3.3780664092
 H          5.3390004771        1.9990884272       -4.4380147956
 H          3.2470196053        1.3852895512       -3.2705778459
 H          1.4150909613        0.5836823664       -1.6219464841
 H         -0.6277879917        0.1776109382        2.3624117496
 H         -3.0543783673        0.2963399368        2.2273758412
 H         -3.7063924642        1.9479475657       -1.5452112293
 H         -4.7995428119        2.6796033180       -3.6251878085
 H         -6.8626799865        1.5657772478       -4.4007221802
 H         -7.8255269615       -0.2881006522       -3.0833903153
 H         -6.7230015017       -1.0369867048       -1.0138540855
 H         -4.1741131391       -2.0605476440        1.7027909679
 H         -5.5983272616       -2.6039470611        3.6353600881
 H         -7.5700110813       -1.2109194874        4.1543754322
 H         -8.1082560297        0.7333577781        2.7296337773
 H         -6.6749602153        1.2921562310        0.8083906363
 H         -2.8635774074       -0.5524694888       -1.9681161399
 H         -0.4337110551       -0.6494811535       -1.8372816533
 H          1.1758298546       -1.1140328093        2.3219049035
 H          3.6047553043       -1.1586250625        2.5059567668
  58
  -92.1451571700000       8.143417715314054E-002 !
 N          5.8031759563       -3.5039821176       -1.8681184367
 C          5.9991710972       -2.5054164882       -1.3193903832
 C          6.3041136148       -1.3155227021       -0.6654650461
 C          7.6747874485       -1.1226915534       -0.5201903925
 N          8.8223496078       -1.0215735378       -0.4277307818
 C          5.3217616637       -0.4011452263       -0.1950241626
 C          5.5683739444        0.8518351805        0.4800326698
 C          6.7479657423        1.4962817994        0.8288858021
 C          6.6761096448        2.7166623184        1.4831834051
 C          5.4522193756        3.3023986863        1.7928666546
 C          4.2655558246        2.6768704493        1.4519878450
 C          4.3178293164        1.4553646769        0.7960499192
 C          3.2784255221        0.5914563275        0.3131973541
 C          1.9102029393        0.6978785535        0.3545015308
 C          1.1104544591       -0.3235950370       -0.1786927981
 C         -0.3309579108       -0.2426778397       -0.1348485483
 C         -1.1316011324       -1.3995230679       -0.1009507167
 C         -2.5000088681       -1.3251914902       -0.0479975201
 C         -3.1496276121       -0.0813711006       -0.0518223513
 N         -4.5309367837       -0.0017411106       -0.0175202578
 C         -5.2844602036       -0.9759888036        0.6536520006
 C         -4.8432032852       -1.4922779300        1.8727623567
 C         -5.5945578538       -2.4455974856        2.5317578969
 C         -6.7902540418       -2.8922041958        1.9909180667
 C         -7.2334602471       -2.3785859588        0.7820263993
 C         -6.4889677990       -1.4268868438        0.1128654424
 C         -5.1988861652        1.0525454714       -0.6575340563
 C         -6.3197939045        1.6352002802       -0.0651312078
 C         -6.9802859290        2.6673704585       -0.7025455546
 C         -6.5350064160        3.1317992288       -1.9304458179
 C         -5.4227805091        2.5539938528       -2.5228749893
 C         -4.7564292154        1.5192081610       -1.8961922015
 C         -2.3636195452        1.0805590412       -0.0937044326
 C         -0.9951693318        0.9980292726       -0.1219924178
 C          1.7514353176       -1.4476099603       -0.7752242001
 C          3.1112374710       -1.5632615883       -0.8466860285
 C          3.9199561913       -0.5529592549       -0.2954734105
 H          7.7070479000        1.0618773762        0.5974530738
 H          7.5901265180        3.2221223590        1.7578278074
 H          5.4317571890        4.2533391858        2.3040295833
 H          3.3151127502        3.1308336005        1.6925351735
 H          1.4546610299        1.5468654459        0.8420259372
 H         -0.6629966196       -2.3713868658       -0.0899991645
 H         -3.0893231862       -2.2303515682       -0.0262937721
 H         -3.9200463828       -1.1291405925        2.3013025974
 H         -5.2480282979       -2.8349670589        3.4770440671
 H         -7.3743900935       -3.6362201265        2.5099081669
 H         -8.1609579557       -2.7261302881        0.3530224329
 H         -6.8254340712       -1.0355034439       -0.8364356720
 H         -6.6566788013        1.2811497303        0.8986116216
 H         -7.8428958413        3.1161265225       -0.2338110906
 H         -7.0530474943        3.9391531435       -2.4243677643
 H         -5.0762199818        2.9044603957       -3.4832868473
 H         -3.9007603775        1.0545434592       -2.3649460753
 H         -2.8464683517        2.0469683117       -0.0830972724
 H         -0.4197372629        1.9099537878       -0.1621766068
 H          1.1403984739       -2.2114320308       -1.2311929708
 H          3.5596953266       -2.4182787973       -1.3259337630
  58
  -92.1451521300000       8.100102019791054E-002 !
 N          5.7825021992       -3.3702839004        2.1032294444
 C          5.9867318842       -2.4042583593        1.5020981954
 C          6.2990456831       -1.2554156650        0.7816992058
 C          7.6712712107       -1.0545226844        0.6665196402
 N          8.8200882235       -0.9421182872        0.6082608509
 C          5.3219465170       -0.3851345057        0.2249566760
 C          5.5754704487        0.8000787061       -0.5604108674
 C          6.7589016491        1.4018659593       -0.9678288012
 C          6.6941674527        2.5565874485       -1.7326507867
 C          5.4735472586        3.1185601919       -2.0950458553
 C          4.2831417788        2.5340553110       -1.6985099670
 C          4.3281518870        1.3779029195       -0.9327339656
 C          3.2838136996        0.5659895050       -0.3758341425
 C          1.9158398053        0.6727504310       -0.4306704887
 C          1.1115357068       -0.2934789157        0.1909263931
 C         -0.3299550168       -0.2155641264        0.1369303458
 C         -1.1294049305       -1.3715389695        0.2054414229
 C         -2.4979427717       -1.3033229663        0.1504868417
 C         -3.1490710203       -0.0645268987        0.0485200453
 N         -4.5305964075        0.0086743698        0.0158833847
 C         -5.2842153679       -1.0300887313       -0.5516383712
 C         -6.4728603462       -1.4438662916        0.0500927063
 C         -7.2157345956       -2.4616359670       -0.5157615889
 C         -6.7867269120       -3.0775932007       -1.6811414701
 C         -5.6072627593       -2.6672896797       -2.2829116309
 C         -4.8574193390       -1.6491838102       -1.7270158725
 C         -5.2016830275        1.1122724476        0.5618507834
 C         -4.7523232084        1.6980417819        1.7460961535
 C         -5.4256025485        2.7787440671        2.2811897359
 C         -6.5515951757        3.2850943245        1.6509335254
 C         -7.0035857130        2.7027303425        0.4770300540
 C         -6.3362977594        1.6237949218       -0.0689906887
 C         -2.3640767077        1.0969842004       -0.0170501875
 C         -0.9951756903        1.0183516334        0.0141937980
 C          1.7469043449       -1.3589360899        0.8918051409
 C          3.1059531587       -1.4719148089        0.9778666210
 C          3.9193743373       -0.5212911400        0.3353885888
 H          7.7154228363        0.9846176823       -0.6973544978
 H          7.6111775878        3.0283947538       -2.0535858373
 H          5.4585580180        4.0184118120       -2.6917905874
 H          3.3353859316        2.9695214166       -1.9803607758
 H          1.4641442834        1.4755290442       -0.9942335731
 H         -0.6597713485       -2.3401977223        0.2776651044
 H         -3.0859403271       -2.2075637976        0.2100379619
 H         -6.7978258307       -0.9715727677        0.9660202691
 H         -8.1304539959       -2.7802135592       -0.0394897666
 H         -7.3693158999       -3.8731586528       -2.1191542541
 H         -5.2721595390       -3.1368786577       -3.1953146526
 H         -3.9463365744       -1.3159298928       -2.2030127273
 H         -3.8863394429        1.2893097130        2.2467877343
 H         -5.0736827555        3.2213667200        3.2006566332
 H         -7.0752321524        4.1283590976        2.0737478545
 H         -7.8769828627        3.0950889339       -0.0210568038
 H         -6.6786471661        1.1772859845       -0.9912846450
 H         -2.8479128655        2.0581980603       -0.1121996499
 H         -0.4202659801        1.9304123487       -0.0293614680
 H          1.1318894087       -2.0743209623        1.4158480369
 H          3.5501174099       -2.2795147800        1.5367065058
  58
  -92.1451229200000       7.853558846659098E-002 !
 N          5.7943680734       -2.2723696197        3.2700022053
 C          5.9926876707       -1.6253358425        2.3327538012
 C          6.2983176948       -0.8531224531        1.2162090636
 C          7.6693325342       -0.6987833156        1.0340380015
 N          8.8173235711       -0.6060021167        0.9372922718
 C          5.3167542792       -0.2882667694        0.3562160726
 C          5.5644880824        0.5189694979       -0.8154680354
 C          6.7444869876        0.9510797583       -1.4066006857
 C          6.6736584873        1.7354399457       -2.5478110577
 C          5.4504184459        2.0923904791       -3.1075734427
 C          4.2633603056        1.6710243065       -2.5339531893
 C          4.3144893572        0.8863740386       -1.3907512527
 C          3.2745669684        0.3082098428       -0.5884963246
 C          1.9061090059        0.3548531830       -0.6947350404
 C          1.1072401109       -0.2746812075        0.2701387166
 C         -0.3346443362       -0.2109731218        0.2011051501
 C         -1.1238262173       -0.2466424492        1.3650684318
 C         -2.4910746560       -0.1561647518        1.3073653494
 C         -3.1493606733       -0.0560595114        0.0724619049
 N         -4.5306807424        0.0280930516        0.0129408109
 C         -5.2345736589       -0.5418856896       -1.0566715757
 C         -4.8315840689       -1.7658783403       -1.5928586250
 C         -5.5372348147       -2.3282925905       -2.6383807864
 C         -6.6495549416       -1.6855208548       -3.1591767414
 C         -7.0537431186       -0.4705116545       -2.6280321112
 C         -6.3539027139        0.1028855690       -1.5845128950
 C         -5.2416395572        0.6808834771        1.0304009982
 C         -4.7403774067        1.8543291164        1.5957815146
 C         -5.4454988111        2.4963910806        2.5946405473
 C         -6.6545660192        1.9840342785        3.0387817322
 C         -7.1576733882        0.8212331778        2.4762893833
 C         -6.4595622660        0.1689711229        1.4787803848
 C         -2.3755311153       -0.0404344599       -1.0977062414
 C         -1.0067251484       -0.1007825660       -1.0298721214
 C          1.7461908364       -0.9797667412        1.3300368064
 C          3.1059410904       -1.0636915516        1.4382752297
 C          3.9149211296       -0.4110057768        0.4907087419
 H          7.7031047374        0.6851530512       -0.9912980249
 H          7.5879684840        2.0761847632       -3.0107116541
 H          5.4307052656        2.7051698667       -3.9964590522
 H          3.3134131234        1.9494864723       -2.9667827586
 H          1.4491659290        0.9218260830       -1.4922301653
 H         -0.6460088316       -0.3167488158        2.3300426616
 H         -3.0735199749       -0.1830001779        2.2168371257
 H         -3.9762611272       -2.2749512130       -1.1722602776
 H         -5.2220660322       -3.2787788173       -3.0414459481
 H         -7.1996871875       -2.1303562045       -3.9737610280
 H         -7.9156346766        0.0378274893       -3.0327702702
 H         -6.6592955665        1.0565148260       -1.1784988440
 H         -3.8063784634        2.2612314554        1.2356017943
 H         -5.0520013787        3.4060730696        3.0222151244
 H         -7.2023931719        2.4893570450        3.8188946898
 H         -8.0959613313        0.4144700172        2.8214830618
 H         -6.8427021440       -0.7456816315        1.0496964423
 H         -2.8669599157        0.0439830086       -2.0562113786
 H         -0.4373766808       -0.0884539947       -1.9466159773
 H          1.1330433868       -1.5079031181        2.0442156888
 H          3.5539703790       -1.6268085475        2.2407691146
  58
  -92.1442662500000       3.172256011952172E-002 !
 N          5.7165939652       -2.9011635594        2.7456523439
 C          5.9323073135       -2.1084390723        1.9322290559
 C          6.2604997363       -1.1585294884        0.9699748442
 C          7.6335231933       -1.0568242233        0.7690052026
 N          8.7821795492       -1.0265576008        0.6429116957
 C          5.2976391102       -0.3706059012        0.2795537541
 C          5.5705956216        0.6737848810       -0.6781446024
 C          6.7635933673        1.1690125908       -1.1883945833
 C          6.7184423247        2.1868352534       -2.1288950993
 C          5.5077438212        2.7193950949       -2.5631146447
 C          4.3081664399        2.2437289838       -2.0625138444
 C          4.3327706616        1.2234921775       -1.1218807418
 C          3.2758119713        0.5292501099       -0.4447310224
 C          1.9078342198        0.6601306940       -0.5012744657
 C          1.0970012856       -0.2208522865        0.2228058775
 C         -0.3471662352       -0.1408159507        0.1542377346
 C         -1.1322280959       -1.3050628372        0.1840674691
 C         -2.5007866709       -1.2437693017        0.1043492005
 C         -3.1526943738       -0.0048015698        0.0449361560
 N         -4.5412618292        0.0567439166        0.0008544256
 C         -5.2480796661       -0.8925406956       -0.7474024295
 C         -6.4574651188       -1.4125395541       -0.2846195242
 C         -7.1404970987       -2.3471521662       -1.0381904602
 C         -6.6313346974       -2.7771370317       -2.2537326872
 C         -5.4294902018       -2.2638372567       -2.7163337988
 C         -4.7395618401       -1.3269005886       -1.9732458336
 C         -5.2251085041        1.0276497815        0.7396951972
 C         -6.4067782010        1.5892086079        0.2528401746
 C         -7.0880981588        2.5258429862        1.0050884081
 C         -6.6032713383        2.9197166887        2.2427449494
 C         -5.4250260470        2.3716926477        2.7255953053
 C         -4.7374562623        1.4313700087        1.9844754623
 C         -2.3816089530        1.1649586319        0.0325108043
 C         -1.0100564674        1.0933838839        0.0587922534
 C          1.7096199685       -1.2138570355        1.0362278249
 C          3.0672276644       -1.3261824726        1.1502689635
 C          3.8925754151       -0.4654835033        0.4054901911
 H          7.7121639775        0.7711359046       -0.8656689085
 H          7.6426713254        2.5722129012       -2.5334139969
 H          5.5081070294        3.5091480870       -3.2995148249
 H          3.3685100382        2.6549338774       -2.4018794961
 H          1.4590303058        1.4015469234       -1.1463825607
 H         -0.6490136193       -2.2686880896        0.2395891101
 H         -3.0881413587       -2.1505090834        0.1152121713
 H         -6.8447035841       -1.0915513512        0.6716195786
 H         -8.0718930040       -2.7488673209       -0.6690821592
 H         -7.1679740905       -3.5085652848       -2.8377216635
 H         -5.0302616383       -2.5882848988       -3.6652754471
 H         -3.8110855160       -0.9126205037       -2.3392695671
 H         -6.7766385025        1.2931037504       -0.7181881681
 H         -8.0003867090        2.9552661964        0.6197701241
 H         -7.1409167062        3.6490261747        2.8284767377
 H         -5.0445839620        2.6681973205        3.6912900230
 H         -3.8319864828        0.9856688401        2.3706633913
 H         -2.8770174996        2.1238533974       -0.0199135304
 H         -0.4318535898        2.0049707742        0.0403465233
 H          1.0759977236       -1.8623677111        1.6224761063
 H          3.5000345799       -2.0679320504        1.8014687873
