  52
  -65.9123901176000       0.503747695314554      !
 C         -4.9638125722       -2.7273643266        0.2488306336
 C         -3.7156099828       -1.9047291977        0.2155287085
 C         -2.6311570010       -2.1928877737        1.0388657355
 C         -1.4925362091       -1.4138571683        1.0353971485
 C         -0.3799578615       -1.7348391343        1.9820873803
 C         -1.3626457280       -0.3240028968        0.1225668411
 B         -0.0009474167        0.3998798169        0.0043848466
 C          0.0023957901        1.9602550705        0.0046229057
 C         -0.9959408093        2.6877698928        0.6746412632
 C         -0.9940056627        4.0665660098        0.6673999844
 C         -0.0023307508        4.7693717058       -0.0030059007
 C          0.9923329513        4.0660770005       -0.6688447798
 C          0.9999276281        2.6873296437       -0.6665768075
 C          1.3647559307       -0.3192651827       -0.1189119831
 C          2.4889235355       -0.0154405174        0.6960380827
 C          2.4519604344        1.1214500062        1.6699637645
 C          3.6135001383       -0.8116667314        0.6498549347
 C          3.7150866217       -1.9005645746       -0.2184422968
 C          4.9542329019       -2.7369231160       -0.2535155214
 C          2.6325363491       -2.1798816780       -1.0484479707
 C          1.4953220566       -1.3994041722       -1.0422635738
 C          0.3855594905       -1.7088780684       -1.9962370825
 C         -2.4891703810       -0.0148890191       -0.6892908572
 C         -2.4516425721        1.1271146701       -1.6573237592
 C         -3.6146993661       -0.8081660859       -0.6448093052
 H         -5.8425906718       -2.0901587885        0.3421322919
 H         -4.9482432489       -3.4292972987        1.0791226729
 H         -5.0650235402       -3.2931577114       -0.6787382958
 H         -2.6961176599       -3.0307186334        1.7205859333
 H         -0.6927094705       -2.4788549999        2.7115498505
 H          0.4820795705       -2.1242030974        1.4385456909
 H         -0.0518288170       -0.8374618399        2.5043321712
 H         -1.7646885895        2.1598914351        1.2207204442
 H         -1.7706418779        4.6015404863        1.1977451293
 H         -0.0041930385        5.8492945944       -0.0060500118
 H          1.7673873832        4.6005838204       -1.2016558786
 H          1.7725212511        2.1591134335       -1.2067783550
 H          1.4565293149        1.2274042147        2.0973040020
 H          2.6889195233        2.0628595206        1.1736449678
 H          3.1747273244        0.9660631741        2.4689110919
 H          4.4461876517       -0.5881140074        1.3034058965
 H          4.9202458920       -3.4857916647        0.5401722319
 H          5.0470349799       -3.2580384781       -1.2037897042
 H          5.8407389198       -2.1259059099       -0.0948249620
 H          2.6997579000       -3.0112182426       -1.7377581722
 H          0.7005558501       -2.4444461019       -2.7332373608
 H          0.0595241865       -0.8052213150       -2.5088943101
 H         -0.4780161974       -2.1042565950       -1.4595411403
 H         -2.6826398535        2.0668067724       -1.1548872128
 H         -3.1782472887        0.9787911332       -2.4537113280
 H         -1.4578682736        1.2319411789       -2.0886341661
 H         -4.4492847906       -0.5799974626       -1.2943903249
  52
  -65.9113016640000       0.159218831301985      !
 C         -4.9819062678       -2.7008941666        0.2696004379
 C         -3.7213854409       -1.8980999592        0.2094609641
 C         -2.6422698838       -2.1820025452        1.0420018851
 C         -1.5019549345       -1.4057634672        1.0391710299
 C         -0.3942411061       -1.7224852393        1.9931097283
 C         -1.3656342171       -0.3247973340        0.1183991163
 B          0.0016884220        0.3924680158        0.0007623848
 C         -0.0019966973        1.9525934178        0.0026061861
 C         -1.0022642928        2.6788831401        0.6706010480
 C         -0.9960387719        4.0575914318        0.6726344008
 C         -0.0003775607        4.7618184647        0.0094473580
 C          0.9941087229        4.0598132181       -0.6576680890
 C          0.9979258058        2.6811177849       -0.6642347607
 C          1.3650000496       -0.3285381934       -0.1169569226
 C          2.4883686876       -0.0189778546        0.6983829924
 C          2.4425815709        1.1156946229        1.6738724292
 C          3.6211181035       -0.8046898179        0.6494924230
 C          3.7296810414       -1.8907967569       -0.2179499004
 C          4.9783279556       -2.7104227750       -0.2913098857
 C          2.6456140412       -2.1794802093       -1.0469335789
 C          1.5023606614       -1.4110374283       -1.0378475335
 C          0.3898076282       -1.7349244132       -1.9841783173
 C         -2.4865522227       -0.0162269645       -0.6992232314
 C         -2.4429897958        1.1201733433       -1.6733533037
 C         -3.6141208736       -0.8078998728       -0.6565429263
 H         -5.7338503329       -2.1775723491        0.8629388446
 H         -4.8044461921       -3.6712014670        0.7278091298
 H         -5.3920311613       -2.8480663163       -0.7281706637
 H         -2.7128288931       -3.0149278734        1.7289354337
 H         -0.0686109088       -0.8224118003        2.5124831914
 H         -0.7109410074       -2.4627841837        2.7246525689
 H          0.4704745471       -2.1145264300        1.4555895843
 H         -1.7743703788        2.1498831584        1.2107751750
 H         -1.7722286405        4.5914809142        1.2044004629
 H          0.0000322827        5.8417183303        0.0117619153
 H          1.7707123227        4.5953732598       -1.1872084387
 H          1.7675929731        2.1537426884       -1.2094470824
 H          3.1748435247        0.9705686626        2.4656919553
 H          1.4494206860        1.2055448739        2.1104823383
 H          2.6591583559        2.0617199808        1.1768082488
 H          4.4517043816       -0.5724873171        1.3027709140
 H          4.7488585512       -3.7668778915       -0.1525627592
 H          5.4473089308       -2.6024814184       -1.2700862500
 H          5.6925208618       -2.4038881212        0.4690056499
 H          2.7200711606       -3.0128290995       -1.7330131384
 H         -0.4652944325       -2.1404318746       -1.4417188116
 H          0.7089115511       -2.4673894963       -2.7224246397
 H          0.0493353834       -0.8360628901       -2.4955840642
 H         -3.1632006137        0.9663634532       -2.4744482514
 H         -1.4460345409        1.2239159060       -2.0975944739
 H         -2.6790591408        2.0622165820       -1.1778852197
 H         -4.4438402106       -0.5815444783       -1.3129008850
  52
  -65.9110435320000       0.121161649785488      !
 C         -4.9536135581       -2.7257678019        0.2387569178
 C         -3.7154325634       -1.8873270102        0.2058507108
 C         -2.6444796059       -2.1584030975        1.0533882799
 C         -1.5057183194       -1.3795672041        1.0524533306
 C         -0.4075628480       -1.6777962959        2.0233947760
 C         -1.3643754015       -0.3146944448        0.1168172892
 B          0.0107178526        0.3964914983       -0.0028535436
 C         -0.0118403841        1.9560019752        0.0034375246
 C         -1.0136810819        2.6752471992        0.6762985302
 C         -1.0059411436        4.0536298653        0.6962437572
 C         -0.0109076072        4.7651142118        0.0392864426
 C          0.9806772050        4.0704520187       -0.6395010313
 C          0.9827278721        2.6919256129       -0.6642590817
 C          1.3643577583       -0.3345847718       -0.1212945003
 C          2.4980811840       -0.0220512795        0.6829160947
 C          2.4625406489        1.1227768589        1.6464831953
 C          3.6278178292       -0.8089399500        0.6308285522
 C          3.7257213217       -1.9082092435       -0.2245337397
 C          4.9846165379       -2.7110654055       -0.3003369437
 C          2.6333792426       -2.2044212495       -1.0380383821
 C          1.4917848987       -1.4328878687       -1.0268661779
 C          0.3703000526       -1.7682997381       -1.9584121704
 C         -2.4757562453       -0.0139214761       -0.7121959105
 C         -2.4261336165        1.1139977187       -1.6958475271
 C         -3.6020426435       -0.8097419545       -0.6728477194
 H         -4.8499263475       -3.5684037118       -0.4477432685
 H         -5.8236488927       -2.1492442050       -0.0680501197
 H         -5.1260948719       -3.1269382236        1.2354087864
 H         -2.7222613286       -2.9810477916        1.7518656520
 H         -0.0910451348       -0.7689870267        2.5327002345
 H         -0.7295197324       -2.4078818067        2.7626780726
 H          0.4639981561       -2.0746564654        1.5010391379
 H         -1.7865525294        2.1405045688        1.2097729713
 H         -1.7811305064        4.5819672737        1.2349416457
 H         -0.0108932428        5.8449164827        0.0527206103
 H          1.7564647940        4.6116429950       -1.1645356069
 H          1.7501778660        2.1703387534       -1.2181070622
 H          3.2084287259        0.9911731252        2.4275918191
 H          1.4767306623        1.2136412136        2.0987960665
 H          2.6655396908        2.0644337686        1.1356142349
 H          4.4666667758       -0.5725888634        1.2719289446
 H          5.6660339450       -2.2726736388       -1.0321480503
 H          5.4938977732       -2.7250836443        0.6612605405
 H          4.7764121547       -3.7335619189       -0.6083976293
 H          2.6969169459       -3.0468333043       -1.7140631519
 H          0.6828265029       -2.5090774984       -2.6911791378
 H          0.0243871675       -0.8756730177       -2.4769813383
 H         -0.4795850412       -2.1680630115       -1.4036118217
 H         -3.1369706442        0.9503651818       -2.5033669112
 H         -1.4248349838        1.2168249800       -2.1101985030
 H         -2.6707320169        2.0595188193       -1.2115782799
 H         -4.4257770398       -0.5904738020       -1.3390092315
  52
  -65.9109535875000       0.110161425735399      !
 C         -4.9433926373       -2.7263630900        0.2275480886
 C         -3.7029480758       -1.8910803535        0.2013108111
 C         -2.6311431446       -2.1616611591        1.0462235986
 C         -1.4948742796       -1.3780822811        1.0471024952
 C         -0.3944918711       -1.6766560680        2.0153766886
 C         -1.3575653810       -0.3099324940        0.1149059663
 B          0.0167592624        0.4030616291       -0.0055571027
 C         -0.0126260577        1.9629143509        0.0042406360
 C         -1.0143502524        2.6733880066        0.6865097252
 C         -1.0161334148        4.0517490744        0.7101692015
 C         -0.0310297630        4.7716741084        0.0474631868
 C          0.9597251455        4.0857750936       -0.6410226061
 C          0.9710445501        2.7071257979       -0.6697170734
 C          1.3692906250       -0.3288564405       -0.1258136462
 C          2.5074639235       -0.0150302489        0.6713816300
 C          2.4836340663        1.1419163567        1.6207035531
 C          3.6317364561       -0.8117194902        0.6269940172
 C          3.7196009888       -1.9204614946       -0.2145949799
 C          4.9562234942       -2.7583239998       -0.2778380195
 C          2.6234294209       -2.2160553580       -1.0258149336
 C          1.4886291039       -1.4364544574       -1.0225591064
 C          0.3644302863       -1.7732135893       -1.9506287220
 C         -2.4707772061       -0.0095065197       -0.7115547884
 C         -2.4268932906        1.1222274153       -1.6914012436
 C         -3.5940342818       -0.8088128362       -0.6735313867
 H         -5.0190793967       -3.2847296691        1.1577996972
 H         -4.9282634678       -3.4412062760       -0.5973294811
 H         -5.8309263800       -2.1067711755        0.1121327208
 H         -2.7040731406       -2.9867434983        1.7423417358
 H         -0.0604384467       -0.7649426652        2.5077751483
 H         -0.7214241478       -2.3905928028        2.7680053049
 H          0.4670655391       -2.0950345318        1.4931662217
 H         -1.7800104461        2.1317950570        1.2234036126
 H         -1.7912440607        4.5731022217        1.2556285310
 H         -0.0385611947        5.8514592797        0.0639072843
 H          1.7281954857        4.6338165572       -1.1697373459
 H          1.7394553721        2.1922569769       -1.2290144755
 H          1.5020062748        1.2401349785        2.0808217374
 H          2.6837946880        2.0766846954        1.0962728261
 H          3.2365899029        1.0177709878        2.3963884373
 H          4.4730121953       -0.5725293450        1.2639014366
 H          5.4030458057       -2.7034701291       -1.2713258424
 H          5.6916112253       -2.4262107426        0.4508398708
 H          4.7175500197       -3.8041575490       -0.0837486565
 H          2.6822176065       -3.0658418011       -1.6930252328
 H          0.6768986048       -2.5115498757       -2.6859062256
 H          0.0131694000       -0.8809879560       -2.4658959811
 H         -0.4815615228       -2.1780051032       -1.3934721456
 H         -1.4260495147        1.2336249729       -2.1042730341
 H         -2.6789580142        2.0640284680       -1.2037423609
 H         -3.1355139152        0.9569273327       -2.5003196432
 H         -4.4189094085       -0.5920237910       -1.3391302501
  52
  -65.9099961366000       3.999590977996619E-002 !
 C         -5.2275041722       -2.2312500786        0.5291458811
 C         -3.8695694295       -1.6289890082        0.3466296527
 C         -2.7901349428       -2.0567644622        1.1177878739
 C         -1.5239706102       -1.5275537832        0.9590896321
 C         -0.4151073174       -2.0524317971        1.8195061057
 C         -1.3191539327       -0.4703875058        0.0459216477
 B          0.0049855311        0.3715077706       -0.0044085708
 C         -0.0011263831        1.8927876635        0.0024448100
 C         -1.0745483433        2.6412677702        0.5534804689
 C         -1.0809326882        4.0142902937        0.5574308501
 C         -0.0136139295        4.7278047034        0.0166141022
 C          1.0597309296        4.0293250577       -0.5312495592
 C          1.0653506955        2.6560694144       -0.5420332558
 C          1.3244410334       -0.4717642496       -0.0528614131
 C          2.3986801371       -0.0944689836        0.7938703430
 C          2.2249463313        0.9165691014        1.8842769757
 C          3.6526798899       -0.6433432145        0.5930732566
 C          3.8746068701       -1.6348525461       -0.3523814069
 C          5.2233327344       -2.2580032896       -0.5340035537
 C          2.7898294234       -2.0697878110       -1.1161314323
 C          1.5264119269       -1.5384949045       -0.9583169527
 C          0.4144143764       -2.0637800202       -1.8147688098
 C         -2.3888373645       -0.0964290668       -0.8058709333
 C         -2.2095552520        0.9096481987       -1.9001871021
 C         -3.6428351199       -0.6445801154       -0.6069120851
 H         -5.1542068329       -3.2768968448        0.8212094069
 H         -5.8125319969       -2.1584879168       -0.3849996579
 H         -5.7659892826       -1.7010431975        1.3169090493
 H         -2.9478804279       -2.8320532266        1.8555331638
 H          0.2097045595       -1.2369440563        2.1747760159
 H         -0.8150035758       -2.5920131871        2.6755070912
 H          0.2238590304       -2.7332694553        1.2577539404
 H         -1.9074545995        2.0990266612        0.9821336839
 H         -1.9190792298        4.5499890894        0.9828306054
 H         -0.0187696978        5.8075229243        0.0213558277
 H          1.8928491838        4.5766196396       -0.9517972718
 H          1.9017984507        2.1257970472       -0.9786998277
 H          2.9632537180        0.7639916007        2.6693741848
 H          1.2260561827        0.8666774947        2.3135432892
 H          2.3543074721        1.9261259867        1.4896485958
 H          4.4721798837       -0.3126723070        1.2172480599
 H          5.6225183353       -2.0065238420       -1.5172502736
 H          5.9208582706       -1.9065155980        0.2215711580
 H          5.1576053821       -3.3436819526       -0.4733643549
 H          2.9472251674       -2.8511731681       -1.8473447557
 H          0.8106412733       -2.6421525531       -2.6470134668
 H         -0.1829921563       -1.2439533392       -2.2063949084
 H         -0.2503716022       -2.7073628625       -1.2397777050
 H         -2.9465222682        0.7565952377       -2.6864405904
 H         -1.2101888515        0.8533666652       -2.3273328019
 H         -2.3354925010        1.9206912338       -1.5095857656
 H         -4.4604731249       -0.3194000105       -1.2363860286
  52
  -65.9098414442000       3.395657470369710E-002 !
 C         -4.9583712484       -2.6773726982       -0.4704912641
 C         -3.7116588907       -1.8643406962       -0.3265323887
 C         -3.5244945299       -1.0290957265        0.7764959586
 C         -2.4056930804       -0.2351935908        0.9112546181
 C         -2.2691030016        0.6141513819        2.1366939700
 C         -1.3721178932       -0.2849605203       -0.0638357363
 B          0.0043243884        0.4000423973        0.1114035935
 C          0.0275884269        1.9008786254        0.5359700516
 C          1.0946834716        2.4283638545        1.2826209565
 C          1.1106627578        3.7551976077        1.6572445901
 C          0.0710612710        4.6033083137        1.3016674439
 C         -0.9902970064        4.0986878091        0.5627832698
 C         -1.0170111431        2.7728332958        0.1854991017
 C          1.3612528641       -0.3121758358       -0.1082177392
 C          2.4017740278        0.2129735149       -0.9215382199
 C          2.2957731560        1.5799863070       -1.5224342375
 C          3.5013520012       -0.5619982406       -1.2276639915
 C          3.6608914865       -1.8513105562       -0.7212505207
 C          4.8772649158       -2.6650035379       -1.0296833655
 C          2.6678503614       -2.3540347295        0.1183947691
 C          1.5609641930       -1.6069233153        0.4582821602
 C          0.5517666098       -2.1757172705        1.4048416095
 C         -1.5999577584       -1.0899425379       -1.2203873402
 C         -0.5999168627       -1.1059004733       -2.3328564644
 C         -2.7264554654       -1.8799720804       -1.3108284127
 H         -5.7295986473       -2.0974055880       -0.9810313298
 H         -5.3480935534       -2.9643985084        0.5040899511
 H         -4.7714430614       -3.5742287715       -1.0574835408
 H         -4.2822523032       -1.0085396901        1.5483939155
 H         -2.5395636514        1.6480824028        1.9218882369
 H         -2.9174929618        0.2494101995        2.9306483955
 H         -1.2380166696        0.6204285889        2.4853992828
 H          1.9031392949        1.7795434516        1.5880012955
 H          1.9399948562        4.1317284237        2.2409229805
 H          0.0871868940        5.6421907964        1.5959218146
 H         -1.8030333620        4.7504105849        0.2712430730
 H         -1.8425766792        2.4047580171       -0.4068424185
 H          2.5887955876        2.3422919697       -0.8006335520
 H          1.2685104421        1.7931251785       -1.8112437505
 H          2.9424942839        1.6684443903       -2.3929803174
 H          4.2638171970       -0.1593151679       -1.8810854480
 H          5.5062130675       -2.7580155004       -0.1430629956
 H          4.5958635291       -3.6708309318       -1.3396761281
 H          5.4652031307       -2.2042584060       -1.8197647969
 H          2.7860383981       -3.3461197058        0.5335992790
 H          0.2916801516       -1.4462306817        2.1699771591
 H          0.9318345614       -3.0758873833        1.8829143033
 H         -0.3671900714       -2.4282396952        0.8741589798
 H         -0.9972814835       -1.6203512528       -3.2046785501
 H          0.3116966294       -1.6144221973       -2.0172257866
 H         -0.3221641561       -0.0910285590       -2.6113797874
 H         -2.8631931007       -2.5083521272       -2.1809372401
  52
  -65.9097781850000       3.175791337890998E-002 !
 C         -5.2714624093       -2.1695014054        0.4633923402
 C         -3.8989710799       -1.5880211915        0.3120805757
 C         -2.8576534695       -1.9862448838        1.1396807247
 C         -1.5771257266       -1.4699821051        1.0070109585
 C         -0.5276226114       -1.9867929644        1.9454826611
 C         -1.3301854891       -0.4677684589        0.0564196565
 B          0.0302293325        0.3406855419       -0.0017907738
 C         -0.0011215298        1.8646255200        0.0092682030
 C         -1.0839594602        2.5991376687        0.5541090539
 C         -1.0917267896        3.9720226642        0.5899586604
 C         -0.0213648000        4.6973336292        0.0707419825
 C          1.0533561044        4.0120141822       -0.4877954563
 C          1.0613740506        2.6383708158       -0.5277570605
 C          1.3320877020       -0.5059383536       -0.0381221613
 C          2.4333099132       -0.0862713424        0.7721344239
 C          2.2520817494        0.9120208566        1.8712469287
 C          3.6958804962       -0.5813110616        0.5163673988
 C          3.9161453098       -1.5788399518       -0.4278297244
 C          5.2836761996       -2.1314693557       -0.6723724636
 C          2.8105359997       -2.0866180452       -1.1196007263
 C          1.5363942315       -1.6107628180       -0.9092184454
 C          0.3987632531       -2.2259515746       -1.6622924886
 C         -2.3637039741       -0.1068042860       -0.8352799169
 C         -2.1363903160        0.8595523993       -1.9580944185
 C         -3.6277910469       -0.6459189768       -0.6712653756
 H         -5.7691408211       -2.2461033352       -0.5011155742
 H         -5.8784951430       -1.5278797390        1.1041015992
 H         -5.2283167612       -3.1563284367        0.9187458496
 H         -3.0415934631       -2.7271156495        1.9061563189
 H          0.4027090843       -1.4390065820        1.8290240867
 H         -0.8655710042       -1.9028677101        2.9779567971
 H         -0.3264525038       -3.0397977854        1.7467363342
 H         -1.9221473259        2.0480809361        0.9604974875
 H         -1.9339523569        4.4979247616        1.0193336210
 H         -0.0302534462        5.7768960307        0.0931762685
 H          1.8861042225        4.5681357081       -0.8976021114
 H          1.8984299389        2.1193524399       -0.9763363605
 H          3.0300862041        0.7974978104        2.6238447512
 H          1.2757949113        0.8046779204        2.3401732299
 H          2.3091679256        1.9285084989        1.4769727874
 H          4.5299817012       -0.2121301309        1.0983296205
 H          5.2471696096       -3.2096346620       -0.8191067051
 H          5.7073195134       -1.6884750111       -1.5757478701
 H          5.9501266104       -1.9087290704        0.1577368067
 H          2.9651358504       -2.8882999593       -1.8289300715
 H         -0.2137845408       -2.8376867030       -1.0012104206
 H          0.7665941332       -2.8564269564       -2.4689328322
 H         -0.2444936555       -1.4538591798       -2.0782916124
 H         -2.2714040727        1.8839831257       -1.6089576731
 H         -2.8438714009        0.6813582433       -2.7658075259
 H         -1.1221570954        0.7807721062       -2.3448545711
 H         -4.4168353288       -0.3421414532       -1.3460141288
