  52
        -66.28550165
 C         -4.9638125722       -2.7273643266        0.2488306336
 C         -3.7156099828       -1.9047291977        0.2155287085
 C         -2.6311570010       -2.1928877737        1.0388657355
 C         -1.4925362091       -1.4138571683        1.0353971485
 C         -0.3799578615       -1.7348391343        1.9820873803
 C         -1.3626457280       -0.3240028968        0.1225668411
 B         -0.0009474167        0.3998798169        0.0043848466
 C          0.0023957901        1.9602550705        0.0046229057
 C         -0.9959408093        2.6877698928        0.6746412632
 C         -0.9940056627        4.0665660098        0.6673999844
 C         -0.0023307508        4.7693717058       -0.0030059007
 C          0.9923329513        4.0660770005       -0.6688447798
 C          0.9999276281        2.6873296437       -0.6665768075
 C          1.3647559307       -0.3192651827       -0.1189119831
 C          2.4889235355       -0.0154405174        0.6960380827
 C          2.4519604344        1.1214500062        1.6699637645
 C          3.6135001383       -0.8116667314        0.6498549347
 C          3.7150866217       -1.9005645746       -0.2184422968
 C          4.9542329019       -2.7369231160       -0.2535155214
 C          2.6325363491       -2.1798816780       -1.0484479707
 C          1.4953220566       -1.3994041722       -1.0422635738
 C          0.3855594905       -1.7088780684       -1.9962370825
 C         -2.4891703810       -0.0148890191       -0.6892908572
 C         -2.4516425721        1.1271146701       -1.6573237592
 C         -3.6146993661       -0.8081660859       -0.6448093052
 H         -5.8425906718       -2.0901587885        0.3421322919
 H         -4.9482432489       -3.4292972987        1.0791226729
 H         -5.0650235402       -3.2931577114       -0.6787382958
 H         -2.6961176599       -3.0307186334        1.7205859333
 H         -0.6927094705       -2.4788549999        2.7115498505
 H          0.4820795705       -2.1242030974        1.4385456909
 H         -0.0518288170       -0.8374618399        2.5043321712
 H         -1.7646885895        2.1598914351        1.2207204442
 H         -1.7706418779        4.6015404863        1.1977451293
 H         -0.0041930385        5.8492945944       -0.0060500118
 H          1.7673873832        4.6005838204       -1.2016558786
 H          1.7725212511        2.1591134335       -1.2067783550
 H          1.4565293149        1.2274042147        2.0973040020
 H          2.6889195233        2.0628595206        1.1736449678
 H          3.1747273244        0.9660631741        2.4689110919
 H          4.4461876517       -0.5881140074        1.3034058965
 H          4.9202458920       -3.4857916647        0.5401722319
 H          5.0470349799       -3.2580384781       -1.2037897042
 H          5.8407389198       -2.1259059099       -0.0948249620
 H          2.6997579000       -3.0112182426       -1.7377581722
 H          0.7005558501       -2.4444461019       -2.7332373608
 H          0.0595241865       -0.8052213150       -2.5088943101
 H         -0.4780161974       -2.1042565950       -1.4595411403
 H         -2.6826398535        2.0668067724       -1.1548872128
 H         -3.1782472887        0.9787911332       -2.4537113280
 H         -1.4578682736        1.2319411789       -2.0886341661
 H         -4.4492847906       -0.5799974626       -1.2943903249
