  113
       -182.68757524
 C         -8.8081975138       -1.9874263984       -4.1390111813
 C         -8.3396420897       -0.7711461327       -3.6476772062
 C         -7.3148414873       -0.7123677598       -2.7225377616
 C         -6.7676262164       -1.9100389426       -2.2857843425
 C         -7.2201286544       -3.1480015827       -2.7969693940
 C         -8.2507604661       -3.1811778550       -3.7269388326
 C         -6.4168747761       -4.1651353260       -2.1778538942
 C         -6.3977294826       -5.5510375636       -2.2621616264
 C         -5.4875256288       -6.2483602072       -1.4932896051
 C         -4.6150939385       -5.5819961311       -0.6357991096
 C         -4.6153399716       -4.2039079459       -0.5349233859
 C         -5.5096830775       -3.4962727150       -1.3250177957
 N         -5.7323429315       -2.1349071317       -1.3987948945
 C         -5.0194101409       -1.1592745584       -0.6915878845
 C         -3.6295805940       -1.1750349589       -0.7078647183
 C         -2.9084803675       -0.2224321246        0.0058623481
 C         -1.4443231282       -0.2279079843       -0.0153960904
 C         -0.7050775816       -1.3900882931       -0.0440252552
 C          0.6964852263       -1.3974522436       -0.0591592404
 C          1.4473490650       -0.2426377798       -0.0653465114
 C          2.9116987788       -0.2493539774       -0.0729154803
 C          3.6109325475        0.7186231141       -0.7856673244
 C          4.9998469768        0.7500245053       -0.7557151240
 N          5.6836502370        1.7582123996       -1.4409343687
 C          5.3795077325        3.1074564842       -1.3891657302
 C          4.3962565586        3.7675469690       -0.6653647512
 C          4.3301970243        5.1434066504       -0.7778569086
 C          5.2212301682        5.8545426007       -1.5784695227
 C          6.2150878881        5.2047185563       -2.2823016106
 C          6.3012260161        3.8218553580       -2.1875220704
 C          7.1938722531        2.8496287935       -2.7542169747
 C          8.2723684710        2.9390117282       -3.6240312413
 C          8.9134347396        1.7770569702       -4.0045133404
 C          8.4801181926        0.5367794693       -3.5419091512
 C          7.4101174251        0.4229141818       -2.6747426546
 C          6.7791192030        1.5892708463       -2.2664552795
 C          5.7024496104       -0.2136810622       -0.0393001022
 C          5.0071919066       -1.1983836513        0.6536589954
 N          5.7046181314       -2.1738743067        1.3762427047
 C          6.7190343776       -1.9460689312        2.2867502504
 C          7.2637017928       -0.7475026676        2.7243399481
 C          8.2648274747       -0.8030437642        3.6752111695
 C          8.7128286117       -2.0170398270        4.1908666400
 C          8.1568556405       -3.2113404889        3.7784050854
 C          7.1495231938       -3.1812080178        2.8231319765
 C          6.3531130752       -4.1995627705        2.1972745891
 C          6.3196513622       -5.5839758929        2.2997163274
 C          5.4217586375       -6.2837657821        1.5187188438
 C          4.5765628866       -5.6215650595        0.6311804247
 C          4.5915270008       -4.2450055451        0.5118926000
 C          5.4724031523       -3.5343265004        1.3143685151
 C          3.6170775365       -1.2091850750        0.6464863647
 C          0.7272737264        0.9759779072       -0.0496113470
 N          1.2289210634        2.2129184781       -0.0416554634
 S          0.0203639304        3.2685879452       -0.0114863531
 N         -1.1997169525        2.2257385404        0.0008285159
 C         -0.7116588767        0.9834059032       -0.0126131272
 C         -3.5925888000        0.7441895183        0.7351450571
 C         -4.9816811990        0.7813036775        0.7276279855
 N         -5.6515613773        1.7826361913        1.4362336418
 C         -6.7319791736        1.6033603303        2.2793936350
 C         -7.3570021119        0.4321244880        2.6827275862
 C         -8.4101693893        0.5347012070        3.5715961402
 C         -8.8325696607        1.7685782633        4.0603368308
 C         -8.1968134044        2.9350082254        3.6847498427
 C         -7.1352924417        2.8569680461        2.7932092736
 C         -6.2506606333        3.8358713799        2.2253467226
 C         -6.1586214196        5.2166508278        2.3409139376
 C         -5.1745836307        5.8749358349        1.6311183451
 C         -4.2993009254        5.1743437680        0.8043899008
 C         -4.3718088656        3.8006432571        0.6705568941
 C         -5.3449025742        3.1317521683        1.3998737192
 C         -5.6996042852       -0.1747282754        0.0162360888
 H         -9.6129398189       -1.9910017761       -4.8590082798
 H         -8.7841269711        0.1477869393       -4.0003909893
 H         -6.9470160954        0.2372680202       -2.3644644941
 H         -8.6031156892       -4.1236221773       -4.1182916598
 H         -7.0861351851       -6.0682853498       -2.9132253686
 H         -5.4542277160       -7.3262966272       -1.5459394739
 H         -3.9262015605       -6.1553124799       -0.0329028716
 H         -3.9508176977       -3.6978857261        0.1495099288
 H         -3.1166263988       -1.9077609129       -1.3115354230
 H         -1.2191808045       -2.3396046372       -0.0343290818
 H          1.2010456751       -2.3518327188       -0.0843760705
 H          3.0743853819        1.4423411518       -1.3759918669
 H          3.7040885876        3.2329142816       -0.0335625525
 H          3.5703050589        5.6797208682       -0.2285873833
 H          5.1343570322        6.9292652986       -1.6406324010
 H          6.9152412212        5.7552426996       -2.8923968815
 H          8.5952435195        3.8992458293       -3.9971993394
 H          9.7559498755        1.8241220598       -4.6782522511
 H          8.9888363309       -0.3572855544       -3.8712019567
 H          7.0708052840       -0.5466094957       -2.3426542545
 H          6.7807340757       -0.1948307144       -0.0150749085
 H          6.9111577121        0.2008497721        2.3477881947
 H          8.7070958584        0.1165864310        4.0288805329
 H          9.4993933061       -2.0181123619        4.9306271677
 H          8.4913240331       -4.1515447543        4.1901838301
 H          6.9871885307       -6.0982294470        2.9745066571
 H          5.3773035470       -7.3606011100        1.5853046711
 H          3.8973096087       -6.1971544660        0.0195821821
 H          3.9479058235       -3.7424314000       -0.1947500498
 H          3.0909600173       -1.9421700978        1.2384245730
 H         -3.0439224998        1.4609403480        1.3227735437
 H         -7.0259181749       -0.5330482537        2.3302651032
 H         -8.9137786348       -0.3634237041        3.8975033075
 H         -9.6617161683        1.8069067008        4.7510012206
 H         -8.5108267575        3.8900062179        4.0781770176
 H         -6.8466541437        5.7591911786        2.9715807288
 H         -5.0832201135        6.9481655176        1.7093558017
 H         -3.5468161151        5.7171032761        0.2512679284
 H         -3.6916728704        3.2743019891        0.0190776670
 H         -6.7780462105       -0.1516766514        0.0093090924
