  75
       -109.19817911
 C          3.0658562125        0.8443991624       -2.0580680201
 C          3.4549547778        1.5451121718       -0.7406062156
 C          4.2660472152        2.7934064822       -1.0876392523
 C          4.2364182373        0.5679903160        0.1193820769
 C          5.6081262466        0.6172178855        0.3132680124
 C          6.2523541593       -0.3242794229        1.0987626793
 C          5.5271216508       -1.3196047449        1.7288232893
 C          4.1563010648       -1.3787862190        1.5627353984
 C          3.5161706794       -0.4577376583        0.7420521678
 N          2.1201112592       -0.4702637840        0.5904332492
 C          1.3882620370       -1.5592577950        0.2009156298
 C          1.9912370666       -2.8165775411       -0.0940718059
 C          1.1986297043       -3.8420139247       -0.5133427346
 C         -0.1924895777       -3.6461175826       -0.6899234371
 C         -1.0862831572       -4.6339160579       -1.1377882610
 C         -2.4070227695       -4.3306513355       -1.3380886248
 C         -2.8853644115       -3.0304504269       -1.1173405909
 C         -2.0435636594       -2.0433482468       -0.6750642249
 N         -2.5129689189       -0.7195210243       -0.4576759080
 C         -2.9354386407       -0.3901926721        0.8272272586
 C         -2.8801219458       -1.3262807655        1.8585930326
 C         -3.2555605780       -0.9808114849        3.1415569753
 C         -3.6780944648        0.3066953083        3.4152223404
 C         -3.7558082638        1.2335326806        2.3890400946
 C         -3.4095686221        0.9030905105        1.0895299154
 C         -3.5895833638        1.8364481800       -0.0890303799
 C         -4.8662996072        1.3941930632       -0.8384620099
 C         -3.7676228493        3.2980577868        0.3204885178
 C         -2.4194161111        1.6219656822       -1.0275342776
 C         -1.8128579805        2.6432000956       -1.7380082859
 C         -0.8629253403        2.3793168793       -2.7097345997
 C         -0.5455751155        1.0688289471       -3.0128097686
 C         -1.1121414455        0.0361956141       -2.2934449499
 C         -2.0058896591        0.3017047035       -1.2584403016
 C         -0.6778785809       -2.3409657563       -0.4264912552
 N          0.1025181759       -1.3542096339        0.0276979487
 C          1.5222029671        0.8105279053        0.6479259287
 C          0.3530416242        1.0179187733        1.3639572674
 C         -0.1892889517        2.2860828720        1.4348662696
 C          0.4412343722        3.3414329344        0.8020099532
 C          1.6203883224        3.1342499728        0.1072056081
 C          2.1802251774        1.8692635032        0.0198462352
 H          3.9607185714        0.5335830648       -2.5945745777
 H          2.4989030426        1.5315721924       -2.6818634988
 H          2.4477348993       -0.0307252391       -1.8767095348
 H          3.6779126892        3.4581022028       -1.7147257520
 H          4.5651046749        3.3269287708       -0.1882143912
 H          5.1544079599        2.5209170808       -1.6521737774
 H          6.1959469824        1.3924606384       -0.1506880098
 H          7.3229220094       -0.2704066000        1.2279747842
 H          6.0239135549       -2.0400389989        2.3611674300
 H          3.5739924604       -2.1247453345        2.0831181249
 H          3.0593463709       -2.9399883476       -0.0161669456
 H          1.6262698615       -4.8088240307       -0.7422316622
 H         -0.7134500264       -5.6308919524       -1.3258758992
 H         -3.0926020931       -5.0903516856       -1.6824338298
 H         -3.9254963283       -2.8019458780       -1.2979673326
 H         -2.5304576239       -2.3273027814        1.6557108336
 H         -3.2058199900       -1.7180887934        3.9294757872
 H         -3.9594541765        0.5885804487        4.4190682464
 H         -4.1053769724        2.2271582904        2.6203265298
 H         -4.7857259909        0.3582586790       -1.1574752340
 H         -5.0163057016        2.0149231341       -1.7194636977
 H         -5.7333627704        1.4894036719       -0.1877477892
 H         -2.8902928247        3.6667401196        0.8462458476
 H         -4.6396938072        3.4064930614        0.9608298937
 H         -3.9380036293        3.9146278377       -0.5586209774
 H         -2.0844690801        3.6691980157       -1.5500009600
 H         -0.4018244716        3.1938995542       -3.2482755604
 H          0.1500071281        0.8434975337       -3.8083769189
 H         -0.8543322393       -0.9826823890       -2.5379888883
 H         -0.1283928105        0.1918226933        1.8598450445
 H         -1.0985600146        2.4410380056        1.9948728611
 H          0.0210522766        4.3352505268        0.8511750043
 H          2.0962678166        3.9756556225       -0.3699012973
