69
 energy: -107.949278452630 gnorm: 0.000039644325 xtb: 6.7.1 (edcfbbe)
C            8.82147138307337       -3.42413390013929       -0.44700022931912
C            8.85125602906775       -2.20951746070443       -1.11440039496598
C            7.80950431819515       -1.31161269541253       -0.97496449220007
C            6.72196585635747       -1.62121213916321       -0.15822173729871
C            5.59081557533485       -0.71215591467064       -0.02831675698502
N            4.33655387593313       -1.18331907313425       -0.06492703920329
C            3.53392923272649       -0.11643903124210       -0.02431220834806
C            2.13778004605309       -0.15058547772036       -0.06977037776929
C            1.44285643252966       -1.39641377955665       -0.13481615356295
C            0.08650624670986       -1.41068856086972       -0.11053476679523
C           -0.64753087759167       -0.18640670701895       -0.02217841971895
C           -2.07310666922508       -0.13426290120676       -0.01919944483879
C           -2.77787168116181        0.97359768845144        0.51343405836475
C           -4.14484218712626        1.02091310578791        0.52196852711434
C           -4.90745000906032       -0.03877742689793       -0.00277413283053
N           -6.29159608383027        0.00704805047080        0.00556115323352
C           -6.96062086430088        1.22976333261637       -0.12387639369939
C           -6.47718644800430        2.21234811828690       -0.99069947538495
C           -7.14480526556637        3.41506704832226       -1.11426638936186
C           -8.29861131474339        3.65589241676648       -0.38366190119181
C           -8.78354089833591        2.68181847058725        0.47609061632901
C           -8.12309402374444        1.47637879802199        0.60980769611766
C           -7.03737515835623       -1.17026456559947        0.14011193493819
C           -6.61262830062926       -2.18069085376899        1.00560736698572
C           -7.35423773797446       -3.33873257366440        1.13384500818462
C           -8.52443689859048       -3.50671332277111        0.40889780700816
C           -8.95133595134620       -2.50446212371380       -0.44918778337758
C           -8.21679168203772       -1.34310347977736       -0.58737270980354
C           -4.22455793257248       -1.14637218242065       -0.53740575522531
C           -2.85746706124676       -1.18950502051250       -0.54690823785847
C            0.14865721233768        0.99064401261055       -0.00090484067833
N            1.44418308126398        1.02505688810292       -0.03713152424610
O            4.23514572795853        1.05703300045459        0.05796171763252
C            5.55609980235215        0.69334037407608        0.06826526226740
C            6.54854200079124        1.70830827716123        0.22144580244777
C            6.20339217905122        3.05166440117429       -0.01947833288660
C            7.14071190968321        4.05139781650135        0.11454349735713
C            8.44051049196967        3.74868690538096        0.50058441814839
C            8.78691612768521        2.43020827706242        0.76900947776784
C            7.86015192697217        1.41925490705742        0.63782690717955
C            6.68714876672983       -2.85524002499177        0.48913412838565
C            7.73504085593402       -3.74595950661843        0.35103210831391
H            9.63953189160346       -4.12095395142685       -0.55519675187198
H            9.68815074157015       -1.96161712010537       -1.75083817009251
H            7.82452010177957       -0.37277453854251       -1.50935341345209
H            2.03362739332970       -2.29790724550790       -0.16530195248519
H           -0.44229181523683       -2.35196273424584       -0.11085388777031
H           -2.22467045942866        1.78220311176291        0.96497240376131
H           -4.65196702624466        1.86511458405362        0.96577249606460
H           -5.58846697206552        2.01712312910711       -1.57254650340466
H           -6.76639126666337        4.16610660122992       -1.79156692304151
H           -8.81732908878138        4.59697800878293       -0.48458323015462
H           -9.67793837619947        2.86559665221281        1.05247049240287
H           -8.49246739141427        0.72315304907291        1.28976862541028
H           -5.71014016938711       -2.04129661477858        1.58228441653696
H           -7.02068578497605       -4.11196215268082        1.80983382951222
H           -9.10092030882660       -4.41323570378545        0.51284285832815
H           -9.85845383374065       -2.63197653178777       -1.02083753622465
H           -8.54133279272572       -0.56807466254929       -1.26581602035848
H           -4.79253847749396       -1.95502836974398       -0.97359587199809
H           -2.36622063175518       -2.03305271952844       -1.00578490177002
H           -0.32481620483975        1.96471280227934       -0.02153054201324
H            5.19198741284724        3.27967630414153       -0.32184105757380
H            6.86186082725553        5.07633980729918       -0.08383692823845
H            9.17395509738918        4.53441214769355        0.60201489406643
H            9.79060746444666        2.19300897300623        1.09093772128615
H            8.12962475463932        0.40243375904109        0.87681377866868
H            5.83118949297347       -3.09604691442250        1.10150845758927
H            7.70324864503107       -4.69545170507544        0.86525689417569
