69
 energy: -108.025054472301 gnorm: 0.000066934314 xtb: 6.7.1 (edcfbbe)
C            8.87852143607048       -3.43221636863361       -0.09078490261178
C            8.96409194952737       -2.22529952383273       -0.76694875576307
C            7.90852981854483       -1.33297667305282       -0.73802671628226
C            6.75255164656088       -1.63939875914281       -0.02213326397731
C            5.61431324311927       -0.72993214587536        0.00768109189279
N            4.33776421859986       -1.21570819561634        0.01503810865672
C            3.55679564883191       -0.17076189426455       -0.02837253225584
C            2.11096260629371       -0.20398220654813       -0.04145442580009
C            1.44053860370171       -1.43003101744939        0.01089865619471
C            0.06210576851323       -1.42800809621341        0.01445469431111
C           -0.62806969497412       -0.21233280370801       -0.03669902703767
C           -2.08912325315105       -0.15158403235908       -0.02817488273564
C           -2.76205397450633        0.86399494748111        0.65370835772642
C           -4.13846138973038        0.91670295469680        0.67271053769269
C           -4.89740402684574       -0.03871943762709       -0.00926427860635
N           -6.28810366424866        0.01516516435953        0.00303759040887
C           -6.95019155301022        1.25149714236374        0.04854477492705
C           -6.47369978054956        2.33880016643132       -0.68314178156968
C           -7.13215126505999        3.55275080073561       -0.63319335547507
C           -8.27551255470074        3.70008323643354        0.13564948292299
C           -8.75677072569558        2.62042779044545        0.85871160056165
C           -8.10038104415065        1.40496470932849        0.82175615491296
C           -7.04435167426405       -1.16641060152096       -0.02818155824971
C           -6.63855381475187       -2.28770446348569        0.69487102996839
C           -7.38907204956792       -3.44745302795179        0.65898278858022
C           -8.55540687656829       -3.50596257131981       -0.08690711652764
C           -8.96670870604254       -2.39185824357493       -0.80079814295172
C           -8.21805937811201       -1.23053217347467       -0.77829035471996
C           -4.22697466085875       -1.05028476787231       -0.70271753027166
C           -2.85068341250384       -1.10813736060988       -0.70211305600967
C            0.15031414911758        0.94870508474358       -0.10008383888939
N            1.46584906505314        0.96193823938729       -0.10141268546980
O            4.23051272627053        0.98969612562333       -0.05806102345891
C            5.54579854647618        0.65347894614985       -0.02403142969784
C            6.53070528174413        1.71868112303147        0.02804278641087
C            6.23149947113525        2.95946527035034       -0.53723735723883
C            7.15244136393844        3.98845923364498       -0.48507637652446
C            8.37664157789830        3.79729693867318        0.13536127313969
C            8.67206669125679        2.57328952559079        0.71582401381672
C            7.75770479786703        1.53852990541102        0.66826277516774
C            6.66521014761844       -2.86315774029178        0.63851725940937
C            7.72457826910992       -3.75076022665017        0.60678190912766
H            9.70622063033211       -4.12566911097536       -0.11431079971162
H            9.85628623772176       -1.97934973135295       -1.32417067915884
H            7.97031784601289       -0.40024307389102       -1.27906105623119
H            2.01584846035892       -2.34045880333018        0.05433840106125
H           -0.48372279242557       -2.35793304748041        0.07745249070497
H           -2.19716976217237        1.59964839231626        1.20689053721157
H           -4.63986044069576        1.69700904335228        1.22599870203537
H           -5.58834166553584        2.22358700060541       -1.29153310793532
H           -6.75398739036200        4.38671962352070       -1.20642368994222
H           -8.78871033483101        4.64938248320088        0.16985848017271
H           -9.64551696760227        2.72679367178557        1.46357443101989
H           -8.47245781588106        0.56657336499245        1.39252023770781
H           -5.73540785940592       -2.24097060525364        1.28593743402239
H           -7.06473286777622       -4.30882922863465        1.22478649436559
H           -9.14079419262410       -4.41288336647396       -0.10990997890700
H           -9.87302008423882       -2.42931510709094       -1.38754228692798
H           -8.53607673095133       -0.36554780769374       -1.34210863271264
H           -4.79704308387157       -1.78726831764774       -1.24886096055789
H           -2.35509165482971       -1.88634428322987       -1.26348081023485
H           -0.31564276883669        1.92322067954086       -0.17079064064190
H            5.27469797431716        3.10242375901040       -1.01774023531936
H            6.91385530089916        4.94295041102147       -0.93084646011232
H            9.09600983863882        4.60177414934262        0.17296241268841
H            9.61922554360027        2.42521968487411        1.21314096295149
H            7.98078198939297        0.59173028535932        1.13594267693793
H            5.75869986460395       -3.10111788320658        1.17425170514803
H            7.64960030212120       -4.69451328616979        1.12715825529854
