  69
       -107.97758306
 C          8.8664364322       -3.4329975253       -0.0741402614
 C          8.9372219780       -2.2460839660       -0.7857546620
 C          7.8842102418       -1.3514186024       -0.7566027447
 C          6.7454038845       -1.6367068956       -0.0062385003
 C          5.6080570169       -0.7270040174        0.0245266192
 N          4.3345105102       -1.2124424767        0.0387944091
 C          3.5534581292       -0.1679834525       -0.0060315291
 C          2.1079377253       -0.1999561690       -0.0227792459
 C          1.4393156155       -1.4277668122        0.0008173870
 C          0.0612062109       -1.4257592585       -0.0028964334
 C         -0.6277589748       -0.2097091410       -0.0322232885
 C         -2.0889170563       -0.1501197535       -0.0281683771
 C         -2.7631502287        0.8501067713        0.6735478210
 C         -4.1395357761        0.9023447813        0.6903936731
 C         -4.8950755454       -0.0396069179       -0.0117660270
 N         -6.2871490755        0.0132022770        0.0003882044
 C         -6.9462036559        1.2486005876        0.0490877440
 C         -6.4542440563        2.3428708694       -0.6614408554
 C         -7.1100587502        3.5575456494       -0.6090614968
 C         -8.2658817269        3.6995143066        0.1412544748
 C         -8.7612806667        2.6139180268        0.8449536626
 C         -8.1080956069        1.3974292756        0.8055298679
 C         -7.0396325650       -1.1678268275       -0.0352860369
 C         -6.6178936968       -2.2985244915        0.6634442708
 C         -7.3658995794       -3.4592209032        0.6244292938
 C         -8.5455263326       -3.5102570601       -0.1001727670
 C         -8.9716364326       -2.3879318899       -0.7914409414
 C         -8.2261398074       -1.2252776958       -0.7656914614
 C         -4.2244578388       -1.0359337200       -0.7247144035
 C         -2.8479470125       -1.0919461171       -0.7237262492
 C          0.1494655447        0.9529665671       -0.0670658648
 N          1.4634167971        0.9654446660       -0.0616305700
 O          4.2263875953        0.9921562132       -0.0408261299
 C          5.5392783805        0.6572395227       -0.0115834149
 C          6.5252494991        1.7195768573        0.0278745507
 C          6.2000855325        2.9746601669       -0.4893390789
 C          7.1221007804        4.0025721657       -0.4547073342
 C          8.3748688303        3.7967863259        0.0998243035
 C          8.6966681921        2.5587673321        0.6339328517
 C          7.7809266764        1.5251285305        0.6048959755
 C          6.6707187709       -2.8418759343        0.6877164204
 C          7.7286016425       -3.7306416842        0.6575827389
 H          9.6933584182       -4.1273246985       -0.0974266560
 H          9.8171829680       -2.0179864114       -1.3694149641
 H          7.9348164531       -0.4344683958       -1.3250001947
 H          2.0147751821       -2.3383023012        0.0274674442
 H         -0.4864983746       -2.3563214635        0.0380882398
 H         -2.1992910010        1.5745468967        1.2420024777
 H         -4.6442504474        1.6706592439        1.2571211572
 H         -5.5595694886        2.2310373374       -1.2562195596
 H         -6.7199413395        4.3967561574       -1.1657605912
 H         -8.7769292502        4.6494137347        0.1773262791
 H         -9.6588065409        2.7166138293        1.4367811600
 H         -8.4907133947        0.5541847836        1.3616370397
 H         -5.7049676793       -2.2568577547        1.2392839009
 H         -7.0299186219       -4.3269952114        1.1726732646
 H         -9.1287656393       -4.4179642300       -0.1254913697
 H         -9.8865002189       -2.4203305282       -1.3644237749
 H         -8.5538518540       -0.3546040842       -1.3146248902
 H         -4.7945765425       -1.7612405172       -1.2861806408
 H         -2.3506649618       -1.8565331126       -1.3020676436
 H         -0.3198151924        1.9268251025       -0.1224883716
 H          5.2222413979        3.1291080394       -0.9197872895
 H          6.8637423210        4.9682694463       -0.8635136256
 H          9.0962461624        4.5999181970        0.1225359346
 H          9.6665530178        2.3997538542        1.0818335107
 H          8.0269239112        0.5692050772        1.0408169679
 H          5.7759774939       -3.0638536393        1.2483956400
 H          7.6659385719       -4.6601123245        1.2044475460
