69
 energy: -107.949374170343 gnorm: 0.000057042154 xtb: 6.7.1 (edcfbbe)
C            8.81202440630446       -3.06860194188703       -1.60758952683135
C            8.81465431295078       -1.70306414057040       -1.84638234553247
C            7.77619333670596       -0.91342386463441       -1.38953242587419
C            6.71931970293749       -1.48585623202116       -0.68154388808901
C            5.59201151720137       -0.68268182128721       -0.22822881868075
N            4.33772718623131       -1.14688897639343       -0.33990756749480
C            3.53621085790672       -0.15783627054897        0.06078406429970
C            2.13933983770712       -0.20770237115924        0.09155082631590
C            1.44178791043199       -1.37457840318839       -0.34562837761901
C            0.08617403089659       -1.36965882090767       -0.39070875535569
C           -0.65120018680455       -0.21097291844199        0.01144572902207
C           -2.07597438262659       -0.15414989064543        0.01302697355965
C           -2.77468842925331        1.07913185142610        0.02914742195422
C           -4.14082208843494        1.13565096765279        0.00527620106230
C           -4.91162086127008       -0.04122728148275       -0.01564260975083
N           -6.29599551071930        0.01550494369056       -0.03303336498516
C           -6.94966860705422        1.05909499890465       -0.69865187512021
C           -6.45298726645638        1.54295584266654       -1.91099471873115
C           -7.10093790289549        2.57433999937376       -2.56193653660020
C           -8.24806133645705        3.13506911219042       -2.02079244161148
C           -8.74647628153254        2.65518643675737       -0.81893648400573
C           -8.10589090727245        1.62558704553867       -0.15795198433211
C           -7.05170679478179       -0.96650435051733        0.61712029504003
C           -6.62225372351247       -1.49620266455946        1.83607676429766
C           -7.37166219454409       -2.46668149442428        2.47161225153739
C           -8.55511006618972       -2.92016519954829        1.90885905431838
C           -8.98726922154118       -2.39403997699974        0.70067053585639
C           -8.24491222228929       -1.42527341977647        0.05454287322097
C           -4.23686589440679       -1.27551354351223       -0.01818762819061
C           -2.87037355343208       -1.32814950605285       -0.01003783594539
C            0.14827348662305        0.86747342045888        0.48078285045835
N            1.44261589198692        0.87819210596437        0.53314505792394
O            4.23571134082625        0.95710365840922        0.43713924516548
C            5.55660440856550        0.62808873589451        0.28232763560829
C            6.55299296053895        1.56160409232783        0.70549169296544
C            6.20485363613337        2.91403194587676        0.87433776131892
C            7.14408426965082        3.83347153154687        1.28622342630313
C            8.44768871846063        3.43463041078595        1.55209913277679
C            8.79789699092354        2.09736224796505        1.41400143954017
C            7.86922593683350        1.16716422341517        1.00044390793945
C            6.71166300106692       -2.86309069211569       -0.46664002995185
C            7.75552717483394       -3.64659037446526       -0.92160666089605
H            9.62753022043901       -3.68140374433187       -1.96253819246733
H            9.62778250657341       -1.25096648407625       -2.39540501030633
H            7.76948305829444        0.14790111335594       -1.59129698384601
H            2.03118693780271       -2.21376083775218       -0.67854623990262
H           -0.43874717912400       -2.22968432342013       -0.77802957671905
H           -2.21708359261994        2.00243045460532        0.04274137871062
H           -4.64134713484331        2.09269474368172        0.02509714810501
H           -5.56824669591613        1.09524835762789       -2.33911448947001
H           -6.71229161480939        2.93738807644693       -3.50170456167616
H           -8.75108280163013        3.94086664234976       -2.53327667116666
H           -9.63600005391926        3.09132451783009       -0.38943417324357
H           -8.48550499875312        1.26163128393159        0.78520504782285
H           -5.70966699177568       -1.12947017461146        2.28223190909177
H           -7.03353948414080       -2.86570591850142        3.41637189022767
H           -9.13760468788645       -3.67845303083755        2.40944956856618
H           -9.90503012685254       -2.74699381843366        0.25457208220730
H           -8.57426753179606       -1.02617608895468       -0.89333781276278
H           -4.81169068018987       -2.18950992035751       -0.05058737673734
H           -2.38811350866264       -2.29279059147645       -0.01136922595695
H           -0.32176520043683        1.74629350768077        0.90472788161924
H            5.18960337403705        3.21761064670642        0.66561961143705
H            6.86272379360667        4.87026861460212        1.40217682383790
H            9.18205561665583        4.15775722580532        1.87369339284145
H            9.80514716152159        1.77878520940436        1.64040838044308
H            8.14136135816637        0.12595815171008        0.92408046614707
H            5.87894958619955       -3.30033480523011        0.06344453762012
H            7.74463954680216       -4.71181476263631       -0.74215275701827
