69
 energy: -108.025067868718 gnorm: 0.000048709093 xtb: 6.7.1 (edcfbbe)
C            9.08289797473438       -3.33015917456445        0.36445405974555
C            9.15798233651628       -2.07297796736217        0.94319727423006
C            8.09841382147569       -1.19129227799841        0.83673174210233
C            6.94875391647160       -1.55997127612905        0.14029169288267
C            5.80493856667714       -0.66328346922145        0.03344907753639
N            4.53177601033129       -1.15710471184198        0.05965189391765
C            3.74352497929672       -0.11753555277200        0.01820984124801
C            2.29794395845090       -0.16167533299167        0.02814094019567
C            1.63882976056910       -1.39439106495730        0.06671767400014
C            0.26052071508284       -1.40524776876545        0.07341262725465
C           -0.44113496689906       -0.19546072537445        0.04000863895253
C           -1.90271494648866       -0.14894372078316        0.03734490200897
C           -2.59337991574675        0.85239443378916        0.72256626323263
C           -3.97034339708387        0.89394501470280        0.72305320365359
C           -4.71224673118981       -0.05884043197656        0.01895348713256
N           -6.10324763644720       -0.01446872399153        0.00918402672307
C           -6.77534493622989        1.21624937934931        0.05743178392363
C           -6.29283562537488        2.31667611094444       -0.65037845706189
C           -6.96185743195713        3.52472886896194       -0.59832655781803
C           -8.12194479673858        3.65320609315584        0.14854304872531
C           -8.60908022732920        2.56057828365376        0.84778639990335
C           -7.94224425758801        1.35086965662525        0.80886126071819
C           -6.85007289757996       -1.20111962018794       -0.05059782832124
C           -6.45032112194428       -2.32741016581805        0.66799825301859
C           -7.19059920986861       -3.49251706023401        0.60336722142443
C           -8.34043693066224       -3.55149680739719       -0.16767539482480
C           -8.74604693264053       -2.43240992650687       -0.87700266007472
C           -8.00752511488917       -1.26549304196888       -0.82549643068624
C           -4.02408816282122       -1.05771241666600       -0.67556240709764
C           -2.64759090259161       -1.10430234651123       -0.65686024570458
C            0.32654706054531        0.97372814891847        0.00027691911572
N            1.64198799514483        0.99925709882338       -0.00477831085663
O            4.40928346454709        1.04651041490645       -0.04017828007944
C            5.72696098861265        0.71777181320200       -0.04341768032123
C            6.70585766072852        1.78172523173024       -0.17415468715468
C            7.93507220794094        1.56068598382350       -0.79709672939608
C            8.84366925035112        2.59419606363776       -0.92138131983228
C            8.54023189542457        3.85688990303551       -0.43564528069528
C            7.31426028924848        4.08708059027374        0.16777916025096
C            6.39874832748415        3.05980615680677        0.29546640005111
C            6.87207740042483       -2.83258818421932       -0.42197079251695
C            7.93569046951273       -3.70904169132511       -0.31377817257057
H            9.91368592922263       -4.01520998539679        0.44863856606724
H           10.04501780353361       -1.77905952438613        1.48519659821855
H            8.15242233493847       -0.21825264437676        1.30239900358592
H            2.22249662940108       -2.30001079697734        0.09729106246185
H           -0.27630212872574       -2.34115416330618        0.12371845929942
H           -2.04241694608778        1.58616466556392        1.29200791280421
H           -4.48562828665664        1.66376291882407        1.27826880120531
H           -5.39452931329968        2.21625562638432       -1.24217768340759
H           -6.57870076336080        4.36904988432374       -1.15279469648354
H           -8.64352665400423        4.59787824863308        0.18413225538577
H           -9.51086641107348        2.65210956346612        1.43552951414829
H           -8.31920227267472        0.50236923152606        1.36116946989285
H           -5.55998270574361       -2.28023694791337        1.27815353960817
H           -6.87121147465543       -4.35785674071635        1.16591707687704
H           -8.91766172141159       -4.46277508454921       -0.21356257710226
H           -9.63970884364975       -2.47029333749777       -1.48281841886383
H           -8.32076046187869       -0.39640933165249       -1.38569751474954
H           -4.58045444044139       -1.79311921599079       -1.23772887330320
H           -2.13843030497704       -1.87193954133018       -1.22056513706599
H           -0.14848456620095        1.94517133445791       -0.04898496371237
H            8.16473140475718        0.58236844319203       -1.19080463706240
H            9.79244941334159        2.41466986706851       -1.40509568146905
H            9.25505899206368        4.66040182106006       -0.53316014749847
H            7.06969123405593        5.07093828507792        0.54044178617471
H            5.44040903779911        3.23294666030776        0.76277577299852
H            5.97007694736542       -3.11735955145432       -0.94222372848227
H            7.86891066084752       -4.69126747109592       -0.75860131644219
