58
 energy: -92.244769766475 gnorm: 0.000050363157 xtb: 6.7.1 (edcfbbe)
N            5.88019619703567       -3.95469018822556        0.32818353693085
C            6.02526842457856       -2.81741343028870        0.24338897310501
C            6.29807290222020       -1.43905490360263        0.14143557410524
C            7.68712414866187       -1.20660439507197        0.14819244091228
N            8.83161023212135       -1.09790549714127        0.16114054506050
C            5.34115256581847       -0.46078936402817        0.05191675507136
C            5.57425663689998        0.97824431581828       -0.05372251402134
C            6.74756687449254        1.71145829973361       -0.10699109191938
C            6.66371361814407        3.09542770406120       -0.20982185793492
C            5.43614063584487        3.73494593084322       -0.25800950465549
C            4.25057787611285        3.00843795335774       -0.20484046207199
C            4.32408439582681        1.63531278293669       -0.10412763454367
C            3.27754097024423        0.62157162706621       -0.03119022554398
C            1.90919316460711        0.74212262625687       -0.03683916911833
C            1.11652454993919       -0.41449440439996        0.02946290826184
C           -0.34132189909153       -0.30927258072066        0.02037466692282
C           -1.12879035181103       -1.24598559630219       -0.65438660673417
C           -2.50128859284850       -1.14248400451541       -0.67312321166191
C           -3.14781408579048       -0.10390599934854        0.00533831311766
N           -4.53320987213364       -0.00289089404088       -0.00196161881568
C           -5.33184182046084       -1.15569291598724       -0.06854730763724
C           -4.98735052117214       -2.30049496126684        0.64921259112298
C           -5.78142527490486       -3.42932743465971        0.57921009276678
C           -6.92950700605477       -3.43270243391383       -0.19675300891456
C           -7.27998616401498       -2.29451196399219       -0.90512927743421
C           -6.48798519205224       -1.16353867493040       -0.84779877352880
C           -5.15726753173904        1.25310587164238        0.05995520410973
C           -6.30863367205150        1.42740643709050        0.82683069926121
C           -6.92787303804063        2.66166612902490        0.88037127715022
C           -6.40829839321805        3.73826876199521        0.17949381238483
C           -5.26445302960157        3.56955086183783       -0.58427482632940
C           -4.64257395766956        2.33717069405105       -0.65024956506734
C           -2.36453034867540        0.83033949429335        0.69108309276391
C           -0.99145785099363        0.73289992277352        0.68695182924207
C            1.74127141831188       -1.66275297288834        0.10217653790624
C            3.11927915331448       -1.79098308531483        0.11964309505541
C            3.90177732216380       -0.64636220453450        0.05352777443719
H            7.71239304237562        1.23063823923196       -0.07059622457789
H            7.57304641656020        3.67581616731282       -0.25245496551031
H            5.39892453602151        4.81124541814740       -0.33809454122328
H            3.29671409694783        3.51175758003656       -0.24327237221078
H            1.44316570356645        1.71185129757684       -0.11845539326154
H           -0.65361992205086       -2.04289445563474       -1.20683866143629
H           -3.08807272109274       -1.86226237025595       -1.22441370706060
H           -4.09883296085696       -2.29659041044238        1.26371934082655
H           -5.50560451365645       -4.30957436736512        1.14140473711915
H           -7.54836781612077       -4.31593075016510       -0.24684306973768
H           -8.17219496952104       -2.28924653224685       -1.51409576862705
H           -6.75807170473102       -0.27960361076257       -1.40704215647648
H           -6.71052042740482        0.59095992840782        1.37990165295218
H           -7.81776820581983        2.78481880112224        1.48021380234189
H           -6.89289208056051        4.70190058969697        0.22676991354677
H           -4.85771591401999        4.40129304889998       -1.14080824706728
H           -3.75778334759417        2.20456960516797       -1.25575821283292
H           -2.84645749034028        1.62748049824224        1.23758489842224
H           -0.41238432437449        1.45194570397748        1.24698671521622
H            1.13413256424229       -2.55241187172689        0.17235754608983
H            3.56657663090369       -2.77034124751181        0.18763615705989
