58
 energy: -92.194373444534 gnorm: 0.000101737017 xtb: 6.7.1 (edcfbbe)
N            5.83772896273967       -3.96964446830108       -0.36993056546875
C            6.01196471478657       -2.82801569082575       -0.29517542129020
C            6.30137064220080       -1.47068090263268       -0.21002328548099
C            7.67146978409837       -1.23799109934407       -0.25470271662320
N            8.82209172867887       -1.12281602558111       -0.29871724652090
C            5.32052188330962       -0.45244243679284       -0.09961908469065
C            5.56279922954769        0.96714170761780       -0.01173949204103
C            6.74172161466307        1.70423054784504        0.01320941238866
C            6.66872538784002        3.08372536304193        0.10585361108081
C            5.44246785231809        3.74118240653885        0.17468564028552
C            4.25792724186708        3.02689943796869        0.15312425464249
C            4.31142371636104        1.64382284653692        0.06146653918678
C            3.27294264753026        0.65129228230431        0.02758932207640
C            1.90400839455770        0.76257835163495        0.06388035381543
C            1.10476754334933       -0.38770830233240       -0.01016722120315
C           -0.33726036913097       -0.29500639425400        0.00156506350061
C           -1.14144354049550       -1.25870959279512       -0.63753803631043
C           -2.50937693139700       -1.16766669712172       -0.63535440662208
C           -3.15599179720591       -0.09998888359127        0.01049513285176
N           -4.53287131012916       -0.00445900057284        0.01568027206552
C           -5.32581966209060       -1.15853633929120        0.00070007322825
C           -4.94779701145980       -2.28371662655782        0.73764857087420
C           -5.73959406039249       -3.41514147253360        0.72462876136238
C           -6.91202793194570       -3.44219424437735       -0.01604460054746
C           -7.29240699408738       -2.32545821810217       -0.74575306666236
C           -6.50869505587476       -1.18838651384394       -0.74158601097225
C           -5.15666705608427        1.24952803519580        0.03629486374874
C           -6.31211539977405        1.44717435045261        0.79560734501703
C           -6.92822326164826        2.68315641667051        0.80526190060190
C           -6.40667078408380        3.73269956168233        0.06312747242912
C           -5.26103807115438        3.53915289200341       -0.69443983941062
C           -4.63587295016748        2.30775852803938       -0.71243514107233
C           -2.36454104599891        0.86815187143035        0.65267541451493
C           -0.99750671264858        0.76894972635650        0.64678517873893
C            1.74518466831100       -1.65444260218725       -0.09742336505649
C            3.10773331636086       -1.78659369451141       -0.11662460027498
C            3.91323372305944       -0.63735474036606       -0.06842934379856
H            7.70240251663553        1.21419577496498       -0.03798817438890
H            7.58260372174260        3.66023721423764        0.12461680800136
H            5.42194589045144        4.81898093904965        0.24540326087607
H            3.30764106939433        3.53787995333532        0.20639194694001
H            1.45004265181396        1.74091956604965        0.10274489635804
H           -0.67316641061993       -2.06194388351166       -1.18403958049203
H           -3.09896674127107       -1.90054283302965       -1.16541740108573
H           -4.04655013457991       -2.25447105654754        1.33166209781500
H           -5.44453092581262       -4.27766816720807        1.30284521722733
H           -7.52730339948919       -4.32875552220036       -0.02249393071884
H           -8.20101276506160       -2.34376009645758       -1.32824025742829
H           -6.79520825881766       -0.32512682082923       -1.32321514583961
H           -6.70769820225514        0.63431496266486        1.38583482269316
H           -7.81607657673453        2.83090366487499        1.40112011593624
H           -6.89198226851920        4.69654345862043        0.07349749210324
H           -4.85740683468794        4.34948984358570       -1.28245302046067
H           -3.75672186210130        2.14952813332942       -1.31905178964448
H           -2.84488692954612        1.67444432803918        1.18644536727765
H           -0.41827921547457        1.49905407827943        1.18953088035082
H            1.13880668454574       -2.54717478159304       -0.10680559177461
H            3.55864518807331       -2.76585115989676       -0.16682618290119
