  53
        -83.88885078
 C         -5.0566179418        0.8315287579       -1.9233179992
 C         -3.7375525473        0.4341666627       -1.2626062540
 C         -2.6975897207        0.1915571880       -2.3750314317
 C         -3.8633422242       -0.8236133328       -0.4212896601
 C         -4.9480892910       -1.6856582715       -0.4521192444
 C         -4.9882969243       -2.8064813523        0.3605559432
 C         -3.9541186360       -3.0663915781        1.2418766064
 C         -2.8673896267       -2.2135294847        1.2961485151
 C         -2.8075865109       -1.1150222347        0.4481689838
 N         -1.7354581328       -0.2009226371        0.5121685213
 C         -0.4224078705       -0.5587667759        0.3566450291
 C         -0.0398436453       -1.9016750761        0.1902632649
 C          1.2823777888       -2.2427250065        0.0394955808
 C          2.2935697674       -1.2794272211        0.0245446349
 C          1.9160350536        0.0689912977        0.1184782823
 C          0.5846600501        0.4127721967        0.2710795094
 C          2.9098356630        1.1616274604        0.0502389402
 O          2.5833310711        2.3353909733        0.1044996449
 C          4.3216040786        0.7459796241       -0.0811222979
 C          5.3080212340        1.7287105525       -0.1275097901
 C          6.6418468808        1.3862497995       -0.2467120747
 C          7.0076362554        0.0505113345       -0.3220427610
 C          6.0376065072       -0.9339860521       -0.2783768409
 C          4.6910239546       -0.6030779645       -0.1578286882
 C          3.6886100527       -1.6952784563       -0.1187922444
 O          4.0194860231       -2.8696333379       -0.2030934798
 C         -2.1759211549        1.1394671712        0.5410127824
 C         -1.6700861817        2.0411776860        1.4683195593
 C         -2.1536463858        3.3356081890        1.5025806073
 C         -3.1571110566        3.7176564442        0.6303098921
 C         -3.6902404962        2.8046584621       -0.2643999991
 C         -3.2116246868        1.5052943321       -0.3233115906
 H         -5.8270513850        1.0170881279       -1.1784086698
 H         -5.3922287536        0.0439529540       -2.5931782082
 H         -4.9189769911        1.7277234787       -2.5228078970
 H         -3.0440247181       -0.5983248126       -3.0380779264
 H         -2.5621295619        1.1008469958       -2.9566139084
 H         -1.7339674688       -0.1002952626       -1.9697453149
 H         -5.7772713969       -1.4937547285       -1.1132296246
 H         -5.8388854328       -3.4691226098        0.3142605193
 H         -3.9967814517       -3.9232303254        1.8966708707
 H         -2.0739828237       -2.3831700554        2.0083728845
 H         -0.7900402410       -2.6743253430        0.1548340251
 H          1.5682076378       -3.2771312187       -0.0781839937
 H          0.3473053624        1.4638032440        0.2983736042
 H          4.9988779665        2.7617991417       -0.0682337168
 H          7.3958793513        2.1580530155       -0.2816304021
 H          8.0482479113       -0.2220939306       -0.4153032181
 H          6.2991990573       -1.9801771380       -0.3367241849
 H         -0.9132042686        1.7217354157        2.1682314847
 H         -1.7537171533        4.0382682898        2.2171398302
 H         -3.5380211222        4.7271829388        0.6532786381
 H         -4.4853104646        3.1224686434       -0.9188318476
