48
 energy: -71.625993358866 gnorm: 0.000054853174 xtb: 6.7.1 (edcfbbe)
C            0.84675896715510       -2.78911543381116       -1.14268707223146
C            0.25175680552058       -1.97272460354162        0.03649483934294
C            0.64473299819995       -2.54836792652543        1.42144759388650
C           -1.25177776097704       -2.12489164946976       -0.02507574260792
C           -1.80597101303984       -3.39676332750853       -0.05779441043954
C           -3.17408990402308       -3.59549941831847       -0.07566551175102
C           -4.02561818245788       -2.49723896062665       -0.05590936644351
C           -3.50688959563674       -1.22538784184908       -0.02763031480806
C           -2.11607745762192       -1.01968512442175       -0.01562205190349
N           -1.60370109690765        0.25274502874719       -0.00247388781211
C           -2.52249618977898        1.34428429941464        0.00622593030830
C           -2.94676146147644        1.87832841775811        1.21531293426823
C           -3.84553758667869        2.93058484365468        1.22015182882347
C           -4.31881132198485        3.44687731001343        0.02525344759808
C           -3.89359835046568        2.91133796903788       -1.17934451766581
C           -2.99528643380030        1.85903078283713       -1.19363456033806
C           -0.25753941488298        0.53566757678042       -0.02029189834245
C            0.15813433188818        1.86115474314995       -0.04720638128400
C            1.49304553735178        2.18510164437211       -0.06030396999402
C            2.49359870540622        1.17195579915429       -0.03850937812054
C            3.83039334613645        1.52180661804559       -0.03973489483818
C            4.85465094220778        0.52412689441274       -0.01212704041695
C            6.20215022085673        0.89053837404610       -0.01404149779570
N            7.31541363239273        1.19163423893210       -0.01578728875607
C            4.47461891337711       -0.81006972805329        0.01721832789854
C            3.14070562202657       -1.17095978009716        0.01661797070487
C            2.08560177585120       -0.20489538433897       -0.01194965151982
C            0.72274858722701       -0.53716903104787       -0.01418294431735
H            0.06254052072186       -3.03589305619401       -1.85572017897266
H            1.29198142054670       -3.71860283995593       -0.79664900416422
H            1.60033869423592       -2.21911983808281       -1.67737208613062
H            0.42743107575518       -3.61210945101911        1.46930119799431
H            0.06268782903392       -2.04750243593149        2.19389181463858
H            1.69501662052979       -2.39097213595684        1.64253596507276
H           -1.15413691860411       -4.25673552038195       -0.07426462567139
H           -3.57562358525432       -4.59639951022926       -0.10237706632103
H           -5.09562838072297       -2.63895722998865       -0.06441890327639
H           -4.17118590484264       -0.37544498456451       -0.01453114401441
H           -2.56915178349914        1.46799309586217        2.13992167438702
H           -4.17593175745405        3.34712570630365        2.15954128713248
H           -5.01940027893019        4.26791681543761        0.03269733032886
H           -4.26120481531973        3.31314176071201       -2.11131127389466
H           -2.65480298540938        1.43310045062560       -2.12558461610258
H           -0.57503982986467        2.65263425841617       -0.05868265844183
H            1.80182312350465        3.21802001318993       -0.08284531575951
H            4.11517738538362        2.56261799250793       -0.06050827676153
H            5.23372061897160       -1.57947387682215        0.03973451837443
H            2.92295068736954       -2.22274162291547        0.03540864063667
