  78
       -123.46222673
 C         -3.4195465016       -3.4018557173       -1.6338558213
 C         -3.5522302474       -2.1477961442       -0.8317914286
 C         -4.7588003933       -1.4609246317       -0.8329750909
 C         -4.9276736437       -0.2918322500       -0.1070943859
 N         -6.1859621937        0.3761055620       -0.1361352700
 C         -6.3994492289        1.2840962952       -1.1686007702
 C         -5.3718483858        1.5564956635       -2.0745467144
 C         -5.5439730495        2.4451890592       -3.1209140041
 C         -6.7476485247        3.1027099561       -3.2882743593
 C         -7.7752103320        2.8553065000       -2.3949563114
 C         -7.6104627220        1.9561014122       -1.3545512362
 S         -9.0193869864        1.6967747302       -0.3126965943
 C         -8.3112150269        0.7667444126        1.0188008427
 C         -9.1149279479        0.5864590692        2.1322115076
 C         -8.6865671389       -0.1838531513        3.1990158977
 C         -7.4424157758       -0.7813752493        3.1342542953
 C         -6.6309817500       -0.5910879217        2.0298436266
 C         -7.0362973980        0.1980270651        0.9512333788
 C         -3.8716765142        0.2194761764        0.6371486776
 C         -2.6651957349       -0.4495188671        0.6427789234
 C         -2.4887095681       -1.6284788402       -0.0805679732
 C         -1.1805755659       -2.2980222806       -0.0141004634
 C          0.0064131158       -1.5669141389        0.0080972538
 C          1.2011458038       -2.2762015939        0.1227344561
 C          2.4974939464       -1.5793704629        0.1353384724
 C          2.6877410528       -0.5181839948       -0.7466010820
 C          3.8839185682        0.1706324216       -0.7882455850
 C          4.9074857102       -0.1968341377        0.0730631252
 N          6.1454203601        0.5089278941        0.0426772704
 C          7.1635024727       -0.0176911491       -0.7456852041
 C          6.9614618139       -1.2221457361       -1.4231036394
 C          7.9481644093       -1.7831995339       -2.2141201153
 C          9.1741424083       -1.1603614678       -2.3488596388
 C          9.3923477871        0.0370570617       -1.6904369853
 C          8.4028985822        0.6072369984       -0.9069175391
 S          8.7955604859        2.1715487681       -0.1725136545
 C          7.4096428001        2.4253722955        0.9018695434
 C          7.4959017650        3.5063119017        1.7631788373
 C          6.4531592048        3.8178224896        2.6180029847
 C          5.3191936532        3.0285852123        2.6039964235
 C          5.2344235578        1.9411368363        1.7529056539
 C          6.2743411702        1.6106968200        0.8810119605
 C          4.7235476739       -1.2500102362        0.9589157051
 C          3.5321338156       -1.9590564480        1.0021302045
 C          3.3760407455       -3.0863711156        1.9714686935
 N          1.1960183931       -3.6066189738        0.2112322524
 C          0.0237432244       -4.2046714316        0.1578373898
 N         -1.1553894200       -3.6306609941        0.0462895188
 H         -2.4967940790       -3.4005358824       -2.2102330714
 H         -4.2623952284       -3.5125773630       -2.3116342055
 H         -3.3833003474       -4.2628510052       -0.9694122161
 H         -5.5904509245       -1.8390989410       -1.4096863577
 H         -4.4214522604        1.0596222589       -1.9591057539
 H         -4.7257344814        2.6205441302       -3.8027658716
 H         -6.8914160365        3.7983869082       -4.0996514290
 H         -8.7282451601        3.3514573367       -2.4982593506
 H        -10.0889265255        1.0516185624        2.1428452774
 H         -9.3227843030       -0.3190172820        4.0591758604
 H         -7.0904449266       -1.4009543868        3.9449437015
 H         -5.6661809074       -1.0720143440        2.0002795738
 H         -4.0041181823        1.1278561535        1.2054622037
 H         -1.8516687741       -0.0647329524        1.2400747060
 H          0.0033810840       -0.4907756627       -0.0574737090
 H          1.8959318309       -0.2448573897       -1.4285998196
 H          4.0296985036        0.9866603066       -1.4794467276
 H          6.0122864667       -1.7262062919       -1.3331855170
 H          7.7481184416       -2.7132709833       -2.7238223799
 H          9.9507869864       -1.5907923569       -2.9607764652
 H         10.3348455057        0.5549290578       -1.7838848906
 H          8.3931274405        4.1061883719        1.7453657467
 H          6.5304446650        4.6660254605        3.2793516647
 H          4.4899436731        3.2513558206        3.2580654217
 H          4.3413939057        1.3362598799        1.7611487966
 H          5.5330943237       -1.5193191539        1.6221987911
 H          3.3435269090       -4.0326294600        1.4351196672
 H          2.4433331051       -2.9965360775        2.5251666482
 H          4.2054032493       -3.1044817799        2.6742131223
 H          0.0312874142       -5.2861389539        0.2125419191
