95
 energy: -158.730663436329 gnorm: 0.000039062052 xtb: 6.7.1 (edcfbbe)
C            0.52244913057265       -0.05960533918266       -2.42457892380847
C            1.34134581002242        0.78733626316668       -1.42845683341155
C            2.22401342295376        1.74441445541079       -2.22992568530850
C            0.38370136739909        1.51875618950675       -0.50218550118749
C            0.09345075064244        2.86927359317119       -0.59498532334168
C           -0.79331521278317        3.47247803734830        0.29311193200910
N           -1.09716309431241        4.83396819639043        0.16346751657528
C           -2.36958033817677        5.37181812142112        0.13121783775347
C           -3.60086927425072        4.73146263369419        0.15320149938096
C           -4.73661173395020        5.51559975353398        0.07955771610432
C           -4.65813987937898        6.90332808090539       -0.02247242542953
C           -3.43563984117221        7.54382563996469       -0.06837855920849
C           -2.27926038918647        6.77738445491770        0.00412559688163
C           -0.87851767778868        7.09506312288993       -0.03275292570562
C           -0.17068666979236        8.28704473438998       -0.12296614324544
C            1.20933949716602        8.24065174744867       -0.10616201244012
C            1.88390820966954        7.02711878504101        0.01334057971775
C            1.20183735344925        5.82863721912249        0.10515413217677
C           -0.18490838090906        5.86668004967253        0.06526876695486
C           -1.36951081295752        2.72367092402666        1.31474842498090
C           -1.08878434850437        1.37638919406561        1.41788056735290
C           -0.24663017396093        0.76852285974781        0.49504655242936
N            0.07483999151281       -0.60562551294018        0.59028459752364
C           -0.86681775368050       -1.59154513953902        0.61125754640298
C           -0.51585140305358       -2.95680160567564        0.57445605737737
C           -1.47634178764240       -3.94387099290717        0.60464075661640
C           -2.82312735901353       -3.61370012190968        0.66527826644665
C           -3.18276763206991       -2.27881442229648        0.63075450082283
C           -2.24136620582027       -1.28019648449416        0.58493847172768
S           -4.91629939832832       -1.83631688851297        0.60272120633999
O           -5.49499692205256       -2.03241242554857        1.90735974742383
O           -5.03472543947152       -0.50298884435252        0.05494491281944
C           -5.64725206974589       -2.98896853700942       -0.56062598851266
C           -6.55727031887764       -2.54509302402552       -1.50346644153043
C           -7.11136461959831       -3.45284661285726       -2.39467169512071
C           -6.74524701875083       -4.78986532538803       -2.34608377990131
C           -5.82255116166611       -5.22684424035147       -1.40626933506454
C           -5.28138958650040       -4.32022138235455       -0.51231867599461
S           -4.09019580502060       -4.86004777527578        0.71833560355630
O           -3.52185060373494       -6.11460294091992        0.27783887221796
O           -4.72724099353099       -4.87511078738364        2.01168105301834
C            1.46325870372571       -0.84161613349221        0.45911164742496
C            2.14595438933464       -1.65582272513356        1.35398305002266
C            3.50812475275226       -1.84125457309672        1.22264979666965
C            4.19966954703382       -1.18032507423449        0.21235626868489
N            5.58078859947923       -1.36224859146325        0.06137479336974
C            6.22568870482457       -1.69100777132910       -1.11573541210899
C            5.69548610164441       -1.95182220046701       -2.37154199466029
C            6.57160151435190       -2.29013307826510       -3.38542271236946
C            7.94436109328336       -2.37675995024445       -3.16187864415705
C            8.47545647126527       -2.14174567620141       -1.90902150344431
C            7.61429425589491       -1.80134082036261       -0.87343393568816
C            7.80863123684080       -1.52038902878160        0.52209524535563
C            8.93191922887588       -1.46104520542497        1.33718306414854
C            8.76704331051622       -1.13447395949669        2.66873510524057
C            7.50420739407248       -0.85138517678541        3.18551040370048
C            6.37210654224000       -0.90390261311284        2.39456766066875
C            6.52811214529611       -1.25800254160199        1.06169916793388
C            3.51885707014526       -0.32018577817854       -0.64606094982811
C            2.15054749552866       -0.14129801043588       -0.53812983627901
H           -0.12366149637387       -0.77051601634004       -1.91753668143769
H            1.19496013065999       -0.61097779116000       -3.07748476729783
H           -0.09866730950214        0.59235222027715       -3.03429708464508
H            1.60913424542782        2.38064616107637       -2.86044801861776
H            2.88414442428825        1.18442881923304       -2.88670613453234
H            2.82361257806209        2.36873318690541       -1.57207752209393
H            0.53291173598275        3.47565785786202       -1.36893573273080
H           -3.67651518312658        3.65603240797416        0.21626238545550
H           -5.70642708164664        5.03979669087740        0.09884012009088
H           -5.56946717382386        7.48100474677318       -0.07424075629217
H           -3.37575758275726        8.61788527950360       -0.16262091670912
H           -0.69325735358854        9.22894313526825       -0.19890828974560
H            1.77780254723195        9.15647663417636       -0.17677707035353
H            2.96393753878798        7.02394130897375        0.03979138940628
H            1.73307483385737        4.89632349805734        0.21998540915006
H           -2.01875155735568        3.20092601082999        2.03214877609652
H           -1.51013698046745        0.79799202510715        2.22584621162561
H            0.52022872970675       -3.24134128428704        0.49564914633613
H           -1.20675511772305       -4.98752325387357        0.57359670840259
H           -2.59516308701417       -0.26648691255992        0.49886476470397
H           -6.80699268993469       -1.49593665657097       -1.52293037849200
H           -7.82549907689755       -3.11272698766331       -3.12834876599520
H           -7.17354615848977       -5.49448072431703       -3.04181134489540
H           -5.50330296074878       -6.25569031699453       -1.35005351451856
H            1.61109565321625       -2.13622117248391        2.15860026568083
H            4.03564500539077       -2.49673021928815        1.89776963711124
H            4.63224745959789       -1.90661198113901       -2.55082210768168
H            6.18390066547504       -2.49636125245421       -4.37250983793423
H            8.59742992658891       -2.64148922116353       -3.98062048139287
H            9.53740805719293       -2.22553393184123       -1.73213828670015
H            9.91264783552309       -1.66393730381461        0.93329343487473
H            9.62737371954498       -1.08640478066353        3.32027537161703
H            7.40833085752841       -0.58197115483865        4.22740283435790
H            5.40146351145887       -0.66526244278072        2.80205522855262
H            4.08746738999691        0.21181023061810       -1.39005480141345
