95
 energy: -158.726321717662 gnorm: 0.000072709472 xtb: 6.7.1 (edcfbbe)
C           -1.18699418167898        2.98267587245213        1.06189420829021
C           -0.74525604637220        1.97557318805413       -0.01645492293769
C           -0.84699790080880        2.61279493547264       -1.41491006266154
C            0.69872610258031        1.59067468259810        0.23704713963711
C            1.67080197729349        2.57930412592631        0.19521164891238
C            3.01848684449110        2.29904707397568        0.37619609068095
N            3.96426409050155        3.33572229123947        0.35046105697466
C            3.90615529691839        4.49428140112432        1.09797254433706
C            2.97140573255673        4.88897387994985        2.04541820422751
C            3.16204506489282        6.10505228907096        2.67305201591876
C            4.25912134603012        6.91248946059176        2.37744384803464
C            5.20393441541403        6.51553593587803        1.45203778404748
C            5.03378662512659        5.29699287516146        0.80679793264952
C            5.80292187240477        4.57880438404941       -0.17066100653408
C            6.98500518623095        4.85273039435725       -0.84713277215106
C            7.45124024094893        3.93242306390343       -1.76484841042526
C            6.74730263146624        2.75718533202112       -2.02173373944913
C            5.57016365872950        2.46164074740911       -1.36125047736822
C            5.10738694103955        3.37263177137642       -0.42153669025478
C            3.40983030775024        0.97932256292480        0.56737901532715
C            2.45828371716665       -0.01653691017803        0.60322418416901
C            1.09558941504241        0.27129658263092        0.47855783935399
N            0.15640024404158       -0.75825652404607        0.54560872051878
C            0.58728705394561       -2.06781575878467        0.82037859719768
C            1.18224134379370       -2.37747216510345        2.04657789713694
C            1.60006462747373       -3.66840538198332        2.31832905569574
C            1.41203463133523       -4.66460922538842        1.37401785090689
C            0.82818699393259       -4.36376968617753        0.15741353935660
C            0.42500134358342       -3.07734061695723       -0.13367701828862
S            0.60854744406342       -5.66347056526385       -1.06156678864279
O           -0.46796960780955       -6.52486060542620       -0.65048550229987
O            0.47169226013004       -5.04446822754221       -2.35836689332673
C            2.16176855607460       -6.55790938748391       -1.02167983374364
C            2.78501476205971       -6.92317337730503       -2.20176916694200
C            3.99135452791983       -7.60730275028039       -2.15088782279384
C            4.57072365161961       -7.91013522244696       -0.92750028108863
C            3.94767697268114       -7.53028343138369        0.25295349848999
C            2.73918536216396       -6.85886213920406        0.19717882421603
S            1.91795670632642       -6.35033176373465        1.70833139788998
O            2.89354624477675       -6.32728081634509        2.77208121579166
O            0.75370772375199       -7.16686631504886        1.92862372492003
C           -1.20069984552884       -0.51837806812016        0.32854079735593
C           -2.12568284323488       -1.55948307610054        0.45645130247075
C           -3.47103335425278       -1.35735518057822        0.23802501894752
C           -3.93278653734508       -0.08799497039927       -0.08865675238877
N           -5.29680800525763        0.14744981565615       -0.32062479109024
C           -6.33542538566760       -0.21123417627694        0.51397624186902
C           -6.29841929849342       -0.83052507200871        1.75577497491010
C           -7.49918649109879       -1.05531216994746        2.40129111522548
C           -8.71315857841546       -0.66919425068165        1.83562486243266
C           -8.75505944857549       -0.03265977593768        0.61104323339727
C           -7.56074882804246        0.20538467254535       -0.05755297521199
C           -7.23364819423570        0.84378647475447       -1.30190131473659
C           -7.99287115189330        1.43681533915550       -2.30298850381193
C           -7.34484672742546        1.95426214437572       -3.40704931977532
C           -5.95879394508315        1.87136928884075       -3.52906492768496
C           -5.18223907050750        1.28601731826110       -2.54757380921351
C           -5.82565576643430        0.78587502246662       -1.42377645333861
C           -3.02226941786677        0.95735833699321       -0.16528224824343
C           -1.66341564222284        0.77023709039032        0.04009211575048
H           -1.10744271283011        2.53049866805127        2.04873139954153
H           -2.21729163278735        3.28923543786740        0.90812311230947
H           -0.56345463489763        3.87163682819267        1.03671435630377
H           -0.52748858395724        1.90031887181978       -2.17325615312105
H           -0.21814900268588        3.49514051090135       -1.48674120453610
H           -1.86913634076243        2.91055652271233       -1.62935379337794
H            1.38798908668171        3.60242297201939        0.00527601009356
H            2.12895204207724        4.26202241613401        2.29477651069621
H            2.44723517655775        6.43649255964996        3.41241178681777
H            4.37222060245898        7.85770716639120        2.88821713181602
H            6.06150735388581        7.13486674332511        1.23439972145846
H            7.52322961139359        5.77000516837346       -0.65920158547718
H            8.36940817850054        4.12583764236481       -2.30027241146621
H            7.12963253357902        2.06341414285867       -2.75655089845981
H            5.02473713698424        1.55586274833055       -1.57909726147909
H            4.45304418210637        0.73547093193707        0.69406244717266
H            2.78389176036802       -1.03618375995356        0.73034872369683
H            1.31095357382991       -1.59973683671044        2.78402265096639
H            2.06786909063623       -3.92751822669945        3.25480804076692
H           -0.00631228793441       -2.87264124343055       -1.10153463636007
H            2.31533751578861       -6.65676147452329       -3.13549638218767
H            4.47856021017645       -7.89895639143784       -3.06821822348952
H            5.51056325035472       -8.43840935558671       -0.88894485910727
H            4.37806359339794       -7.73507344557075        1.22051438003754
H           -1.79497955031110       -2.54880845248181        0.73002347227992
H           -4.16015288656935       -2.18389196373833        0.31611404772236
H           -5.36242409823467       -1.12089682566620        2.20863929711260
H           -7.49710654865858       -1.53885402004837        3.36757824315684
H           -9.63099755025600       -0.86579034614544        2.37037555988983
H           -9.69506005171071        0.27888412999328        0.18017067723991
H           -9.06820969706783        1.48723858103184       -2.21695318475389
H           -7.91733238692811        2.42167323427233       -4.19497601971720
H           -5.48219868888470        2.27073582768001       -4.41265633359797
H           -4.11150259094835        1.20754895832521       -2.65912916787847
H           -3.40283530135967        1.94352753621660       -0.37899846669166
