  95
       -158.66109542
 C          0.6195694081        0.0032306748       -2.3216848883
 C          1.4212416280        0.8505299115       -1.3128719961
 C          2.3059863372        1.8219950695       -2.0932733383
 C          0.4423567975        1.5656580544       -0.3986566731
 C          0.1109747443        2.9038305644       -0.5135819121
 C         -0.8122855042        3.4879121885        0.3501163299
 N         -1.1765943023        4.8256478198        0.1833571404
 C         -2.4753037191        5.2995580285        0.1417704766
 C         -3.6732332723        4.6024179352        0.2070668440
 C         -4.8455934841        5.3273350998        0.1073833987
 C         -4.8349766216        6.7099606732       -0.0627950748
 C         -3.6456282657        7.4048174929       -0.1550019500
 C         -2.4538169253        6.6983392306       -0.0578727343
 C         -1.0708014080        7.0799421351       -0.1340843104
 C         -0.4246374850        8.2976059371       -0.2998675722
 C          0.9558726591        8.3186914857       -0.3064470772
 C          1.6906420566        7.1481542255       -0.1336481954
 C          1.0700961589        5.9246194414        0.0335394182
 C         -0.3169199072        5.8931995560        0.0148898155
 C         -1.3730830627        2.7342114398        1.3773653986
 C         -1.0501235132        1.3992810881        1.5013733394
 C         -0.1810665870        0.8062663141        0.5941188514
 N          0.1537966156       -0.5616388866        0.6949361174
 C         -0.7902603932       -1.5501082958        0.6664692818
 C         -0.4390051499       -2.9109201730        0.5895854781
 C         -1.4034760274       -3.8956274552        0.5640500947
 C         -2.7497144363       -3.5654881442        0.6109584246
 C         -3.1058011442       -2.2309790753        0.6231670238
 C         -2.1603078184       -1.2350550935        0.6300242984
 S         -4.8304234089       -1.7397723609        0.5972891860
 O         -5.4064268548       -1.8909799781        1.9026423096
 O         -4.8933146152       -0.4219403255        0.0128554983
 C         -5.6001827799       -2.8880132944       -0.5517919518
 C         -6.5495478340       -2.4204237608       -1.4435648801
 C         -7.1474367069       -3.3026664293       -2.3306513628
 C         -6.7845997333       -4.6415011622       -2.3307330293
 C         -5.8234140357       -5.1018817309       -1.4435029584
 C         -5.2377947172       -4.2204851351       -0.5515302507
 S         -4.0076142277       -4.8308770187        0.6132710168
 O         -3.4357129015       -6.0327821580        0.0606502062
 O         -4.6040784105       -4.9345843892        1.9148007995
 C          1.5366963563       -0.7983030658        0.5547521176
 C          2.2158530599       -1.6393003672        1.4273368275
 C          3.5726617910       -1.8454450842        1.2789729517
 C          4.2655274009       -1.1762299785        0.2747217320
 N          5.6324035965       -1.3946905736        0.0840918264
 C          6.2300500056       -1.6978117160       -1.1251737719
 C          5.6558821727       -1.8758430524       -2.3755474627
 C          6.4882216821       -2.2102564838       -3.4269202732
 C          7.8593029392       -2.3741173181       -3.2449598643
 C          8.4327285014       -2.2233036891       -1.9981828756
 C          7.6162747499       -1.8874600034       -0.9263255506
 C          7.8599982301       -1.6819001778        0.4745757376
 C          9.0061735651       -1.7136254696        1.2578147260
 C          8.8928257431       -1.4416599118        2.6064982988
 C          7.6599681916       -1.1248277422        3.1720582722
 C          6.5056273924       -1.0872193778        2.4129446553
 C          6.6091143269       -1.3858702007        1.0621916704
 C          3.5909310811       -0.2817195749       -0.5535083908
 C          2.2274779258       -0.0865237081       -0.4312593935
 H         -0.0243766903       -0.7124771262       -1.8193613332
 H          1.3015420765       -0.5424213483       -2.9703654514
 H         -0.0013563318        0.6516242707       -2.9356007935
 H          1.6955925110        2.4587059442       -2.7276602809
 H          2.9829498269        1.2760142479       -2.7449220916
 H          2.8885559193        2.4462592376       -1.4199194475
 H          0.5374870578        3.5138607853       -1.2911052491
 H         -3.6968921111        3.5290167861        0.3179775403
 H         -5.7900624453        4.8065890583        0.1580366155
 H         -5.7729277147        7.2398421929       -0.1332993610
 H         -3.6366341762        8.4737955457       -0.3044947879
 H         -0.9946150998        9.2067651186       -0.4160798149
 H          1.4777791465        9.2545129123       -0.4369785573
 H          2.7694054520        7.1974852330       -0.1258042152
 H          1.6491816617        5.0267962841        0.1899675868
 H         -2.0452497044        3.2000991947        2.0799168513
 H         -1.4623186658        0.8149732767        2.3090144385
 H          0.5989401744       -3.1914513250        0.5232241301
 H         -1.1335869862       -4.9376747585        0.4995829655
 H         -2.5100398488       -0.2188279979        0.5778596020
 H         -6.7966352495       -1.3701199363       -1.4261805734
 H         -7.8963301325       -2.9435404883       -3.0206195731
 H         -7.2493432530       -5.3288468456       -3.0215128791
 H         -5.5073536752       -6.1335544376       -1.4260050366
 H          1.6778871307       -2.1292010203        2.2243173346
 H          4.0947812600       -2.5271839729        1.9316931720
 H          4.5907819945       -1.7749535772       -2.5228651028
 H          6.0644155593       -2.3537014611       -4.4098991682
 H          8.4761034033       -2.6340403170       -4.0918626955
 H          9.4925436718       -2.3673954507       -1.8532143531
 H          9.9636312682       -1.9432831689        0.8156109515
 H          9.7705999520       -1.4651430608        3.2343073848
 H          7.6043888439       -0.9004171993        4.2268310635
 H          5.5583734140       -0.8209023661        2.8575498596
 H          4.1632109751        0.2576555319       -1.2886864971
