95
 energy: -158.644534491050 gnorm: 0.000063276412 xtb: 6.7.1 (edcfbbe)
C            0.51289988175433        0.01193576716064       -2.50124425963144
C            1.33252560020372        0.82906281043821       -1.47901033772969
C            2.24046404186853        1.78721399372848       -2.25077938824673
C            0.37625424234328        1.55099059237308       -0.54988964200458
C            0.09568824595346        2.89824650733158       -0.62603513334456
C           -0.82531583600151        3.49559422009906        0.24094719788639
N           -1.12210432613195        4.84841281127547        0.12641611030303
C           -2.39316937610307        5.39498904615440        0.16151817565427
C           -3.62713631980723        4.76082331139720        0.22849119440477
C           -4.76067345499297        5.55422608124329        0.20925438288083
C           -4.67606701554676        6.94049589182907        0.11170993256791
C           -3.44931143636804        7.57506962932667        0.01087019505571
C           -2.30011971248793        6.80054575976339        0.03002171164107
C           -0.89726682147035        7.10980230212053       -0.08069760734193
C           -0.19208621185300        8.29696731325745       -0.20313498969922
C            1.19054167885801        8.24292923149317       -0.25605727756476
C            1.86421579962127        7.02820882655552       -0.16416755069863
C            1.18069213248880        5.83179959486523       -0.03792402660980
C           -0.20720536350382        5.87647755608775       -0.02024699312151
C           -1.43516814334102        2.72203218455545        1.23540056251812
C           -1.16802271428587        1.37822848781220        1.32097473684617
C           -0.29561332459532        0.76841252633731        0.41118687971500
N            0.01264693335239       -0.58746530371367        0.49306087715536
C           -0.95052718765012       -1.57293844998918        0.65508345601962
C           -0.59554275654529       -2.96216904993623        0.64741029036864
C           -1.55458286962953       -3.92539857951142        0.81675287968655
C           -2.89088650635692       -3.58717289909667        1.02671127960892
C           -3.26306199749724       -2.22731198408871        0.91261806543500
C           -2.30938919655457       -1.25634536026035        0.68805121122812
S           -4.97387745852143       -1.81807324632143        0.79204297534165
O           -5.65805370236130       -1.99698710347755        2.05637511138634
O           -5.07135173742344       -0.47035878908905        0.24390278917052
C           -5.53484384658479       -2.96760938994456       -0.42582161687806
C           -6.18409770743656       -2.53413718756336       -1.57428384208275
C           -6.50455295645839       -3.43474792777415       -2.56868007135433
C           -6.13698810001438       -4.78168552249801       -2.44012190767476
C           -5.45379057593686       -5.20735378239944       -1.31993676565379
C           -5.16649444019155       -4.31304222142092       -0.29696277845504
S           -4.16170801006237       -4.79736511131797        1.07655375636697
O           -3.57320876431613       -6.09692041417896        0.78406689032383
O           -4.90638493803555       -4.73602462996393        2.31900539712264
C            1.37919495204541       -0.85098524116842        0.36805526125839
C            2.04235977022978       -1.70609200329798        1.25407955256567
C            3.40064091930899       -1.90095847988794        1.14791475027116
C            4.12398493414716       -1.23772813467035        0.15429398879829
N            5.49741639059393       -1.43355057302754        0.02304679472863
C            6.16669428546860       -1.67407958108976       -1.16381820329975
C            5.66089338591181       -1.84693520393824       -2.44564180581379
C            6.55853131062893       -2.11181936419274       -3.46407388634255
C            7.92538440486935       -2.21531450128455       -3.21872368729675
C            8.43161181497510       -2.07868128572771       -1.93772349513351
C            7.54979253366714       -1.81120865727687       -0.90165622463247
C            7.71566837262007       -1.63893276818252        0.51840582967798
C            8.82235467476348       -1.64161759325101        1.35361451162514
C            8.63259501374684       -1.40510568293901        2.70407485685955
C            7.36292442492865       -1.14785714311103        3.21466665914818
C            6.24495767188288       -1.14087414915138        2.40019207373933
C            6.42451325902541       -1.41084266277536        1.04977630951800
C            3.46642154900600       -0.34571471545702       -0.70036619734149
C            2.10868383227452       -0.13123213727807       -0.59760312352850
H           -0.16144749614715       -0.68721090784974       -2.01404659549402
H            1.18365346436571       -0.55039142219717       -3.14612324880354
H           -0.07992722877454        0.68457420396709       -3.11629719203679
H            1.64362741840810        2.44536901054797       -2.87547817819741
H            2.89651212934679        1.22855288138794       -2.91214379578698
H            2.84307264604111        2.38609237945484       -1.57284826338849
H            0.54665343931683        3.50781047717625       -1.39033400996487
H           -3.71232018674282        3.68605645813206        0.27869148208250
H           -5.73069421955702        5.08323420693737        0.26561199943735
H           -5.58363539040189        7.52527763000061        0.10224313076380
H           -3.38802199999585        8.64800373295237       -0.08698500648333
H           -0.71203633936428        9.24136386538723       -0.25006209015964
H            1.75732507487394        9.15650690461646       -0.35519545354143
H            2.94362417113630        7.01945940320854       -0.18480552347669
H            1.71459099973974        4.90073593333353        0.06497401175295
H           -2.08190027465524        3.19204805208064        1.95929148959743
H           -1.59304442370188        0.79514260385459        2.12273429875983
H            0.41926000017495       -3.26068835116985        0.45201917331895
H           -1.30601423293914       -4.97512440358124        0.79245483097476
H           -2.67877423548668       -0.25916285915345        0.51408267859728
H           -6.42441678457238       -1.48473733576106       -1.65114377654813
H           -7.03159656062574       -3.10318625411227       -3.44938720982738
H           -6.38273593702664       -5.48298475545790       -3.22190951026798
H           -5.12959414343492       -6.22982063843345       -1.19945817980854
H            1.48980225297212       -2.18705420854215        2.04526883155667
H            3.90216745837631       -2.57867525715703        1.82029927458386
H            4.60193190724825       -1.79564561989825       -2.64367083786890
H            6.19073611054140       -2.24654052715196       -4.47028059727311
H            8.59604808267433       -2.42008792043399       -4.03978847367743
H            9.48841634450420       -2.18373835689588       -1.74588798836347
H            9.80990537148831       -1.81879519171950        0.95600532579274
H            9.48077247378292       -1.40712159917472        3.37226359380835
H            7.24800947085628       -0.94571144955625        4.26915129323302
H            5.27063168661754       -0.91794559099897        2.80581988728499
H            4.05323306333024        0.19420263202697       -1.42383952491868
