95
 energy: -158.655279382067 gnorm: 0.000088182211 xtb: 6.7.1 (edcfbbe)
C           -0.02916603368024        3.44716774636235       -1.46210032771115
C           -0.01377292934827        2.79112740115939       -0.06732368326751
C            0.08447956812747        3.87168339645600        1.02732041684686
C           -1.30384055157094        2.02351341591653        0.12996815983031
C           -2.50857437631702        2.69882031243246        0.08757755028515
C           -3.73097065473005        2.04515679871491        0.25039668415091
N           -4.92030050915681        2.75794416707514        0.18966704626474
C           -6.05593151958250        2.38097224315384       -0.50851124402091
C           -6.26060387912563        1.29037619428460       -1.34292921807897
C           -7.49514323451358        1.17032968634122       -1.95643887007138
C           -8.49851433344009        2.11523103740204       -1.76134206681094
C           -8.28733298323849        3.22323259491854       -0.95880296331654
C           -7.05837472982137        3.36252245203736       -0.33285352321217
C           -6.49720057881109        4.37401346916037        0.52633838063620
C           -7.00125390172978        5.54602402520642        1.06904094745055
C           -6.18905500063418        6.28880658580261        1.90865820370727
C           -4.90328014969105        5.85960731659595        2.22495889975401
C           -4.38095786971417        4.69287382062050        1.69525301729413
C           -5.17726850875057        3.96367851275702        0.82251743020600
C           -3.73527600860321        0.66474601585344        0.48280418451005
C           -2.54982653638024       -0.02051850686324        0.54547983396652
C           -1.31865017718181        0.63356918540931        0.35958841613748
N           -0.15207384378134       -0.08576887190660        0.42607175829136
C           -0.21785951002216       -1.48952718339180        0.66384905219740
C            0.04595682415284       -1.98934849291633        1.97122133997669
C           -0.01757382652988       -3.34193520520709        2.19779370685845
C           -0.38509908607403       -4.22049923565182        1.18289504165725
C           -0.63972504211761       -3.71588693298043       -0.11986600138023
C           -0.52628107243051       -2.35753338869196       -0.36506817141907
S           -0.83776604377800       -4.85234964439593       -1.44586611653251
O           -2.09076651269219       -5.57666718597880       -1.36048002853671
O           -0.65242265740230       -4.12100480000072       -2.69402473695793
C            0.55263457981782       -5.91306691917675       -1.20233004165454
C            1.48366834316021       -6.11418914268542       -2.21310281861453
C            2.62892227328216       -6.84097341025516       -1.96414311417020
C            2.87592457410017       -7.34213893793929       -0.67749733397444
C            1.97462214163174       -7.10727933210601        0.33948633452568
C            0.79888966911887       -6.41311117227615        0.08362672963386
S           -0.29402102900464       -5.95879633549426        1.39666919041718
O            0.36933395161116       -6.23120653807412        2.66587218377787
O           -1.58941014847503       -6.59499425288113        1.24774936107068
C            1.07660360037411        0.50204646048199        0.26136459899757
C            2.23753128248441       -0.29020577651236        0.31745482599618
C            3.48299337178243        0.26267750020416        0.16642048117505
C            3.61180463845174        1.63661022152453       -0.06828425228980
N            4.86222925620357        2.21612706268624       -0.23148534822268
C            5.21142899321667        3.12686578213103       -1.21594713343142
C            4.46646972275467        3.60292101150046       -2.28648720951327
C            5.07796991321045        4.48792057026464       -3.15689433299266
C            6.40112619329014        4.88245549859372       -2.98065096572769
C            7.16040307235234        4.38114359444023       -1.93733502566316
C            6.56651282002054        3.49458174556770       -1.05225746510021
C            7.05295947877040        2.76923451307001        0.09382666858869
C            8.27509483616747        2.73566304167760        0.74723577656076
C            8.40478003667941        1.93051139163908        1.86579671518300
C            7.32838119768697        1.18708327533877        2.34136590055496
C            6.09896144579111        1.20826696209477        1.70655994342674
C            5.97333739391228        1.98665831497570        0.56386346821255
C            2.45880489854161        2.41988018567394       -0.14449447245752
C            1.19569394368453        1.88476271605387        0.02117825467966
H           -0.06171992989500        2.68121573834646       -2.23430688945801
H            0.85855220985334        4.05403394093129       -1.60929556599038
H           -0.89844425314474        4.08688369848160       -1.57702735566614
H           -0.73455169569169        4.57858587854137        0.94133911620313
H            1.01606825578751        4.42197992866400        0.94207362482417
H            0.04592131437432        3.40967988778062        2.01145700929356
H           -2.52299597963452        3.75745129876912       -0.11416666078387
H           -5.48576316395351        0.56137324844891       -1.52251479314364
H           -7.68028491570849        0.32647038817527       -2.60422798268289
H           -9.45014308296452        1.98455316395978       -2.25437519765961
H           -9.05884129269173        3.96614122196279       -0.82694256730264
H           -8.00771791339537        5.86524279239932        0.84625327647353
H           -6.56184587797872        7.20628045479626        2.33872564877369
H           -4.30214231428861        6.44587775020972        2.90364431771357
H           -3.39617878981462        4.35451736584412        1.97516742706761
H           -4.66607383566899        0.14819176144782        0.65475956252148
H           -2.55689995349626       -1.07851978292067        0.75220282647975
H            0.29412816475156       -1.30110101055611        2.76237845025641
H            0.20543027575557       -3.76602984653551        3.16466372572678
H           -0.68887700602946       -2.00897831739713       -1.37386543298382
H            1.27370941730535       -5.68737805251950       -3.18210126072952
H            3.33900101638651       -7.01982519848264       -2.75623180612728
H            3.77540314196311       -7.90502700953769       -0.48325547990014
H            2.14442751943474       -7.45144223872063        1.34847207728476
H            2.13973018588683       -1.35361502051483        0.46365668069581
H            4.35792643424625       -0.36720156808525        0.18267794538701
H            3.45205884993822        3.27869993288134       -2.45579096741113
H            4.51775383587407        4.87495607011359       -3.99482362709452
H            6.84428933871944        5.57657827527721       -3.67893414230813
H            8.19419727835242        4.66634794523057       -1.81752590783146
H            9.10345603373792        3.32986017384368        0.39337716612781
H            9.34962184710582        1.88599293402102        2.38647351980160
H            7.45241968400819        0.58359611484446        3.22807486528362
H            5.26789686095869        0.64522256779335        2.10119070609592
H            2.57550799319065        3.47966712842206       -0.30186160828645
