92
 energy: -138.256179911354 gnorm: 0.000032449575 xtb: 6.7.1 (edcfbbe)
C           -8.77635802743228       -2.04700907711940        0.37651282623274
C           -7.87814942685558       -0.83943549575134        0.04593097215336
C           -8.74294732795435        0.39264831535908       -0.28366642908039
C           -7.03508164031566       -1.17333271451837       -1.16864629598525
C           -7.65699780290828       -1.48253099738350       -2.37080606025052
C           -6.93816145759914       -1.77443778969861       -3.51565018713113
C           -5.55409283272798       -1.74786854535820       -3.47354157974770
C           -4.90977691274281       -1.44635389440295       -2.29334083556160
C           -5.63443428069271       -1.16943512525274       -1.12753551336909
N           -4.95824369737703       -0.88994009166138        0.04626413955795
C           -3.53474218231088       -0.91524562888364        0.04190235312833
C           -2.85697989132788       -2.14092621560053        0.10969339604069
C           -1.48556521327282       -2.16832264207793        0.09963500313703
C           -0.72041866440272       -0.99190159345736        0.02841719345394
C            0.71922654864306       -0.99200926476486        0.01902429642012
C            1.48482363799152       -2.17027347595248        0.02322507838268
C            2.85620531203559       -2.14296853926907        0.01545969292947
C            3.53397708184218       -0.91523853687732        0.01201866661611
N            4.95703641517868       -0.89031660866789        0.01402488929590
C            5.62705788313788       -1.13941975043120        1.19853334091064
C            4.89674058513823       -1.37693370654716        2.36956607654064
C            5.53483433392091       -1.65150400736558        3.55969728642048
C            6.91844792775935       -1.68842600802904        3.60735136501044
C            7.64312397494463       -1.43089475802860        2.45801204123760
C            7.02747854914200       -1.14964607533228        1.24579357010351
C            7.87749465953692       -0.84982392921807        0.02731171383890
C            8.74439738758565        0.38768644149284        0.32994181320243
C            8.77345600794661       -2.06799603243974       -0.26866676456949
C            7.02992467670370       -0.56662547545149       -1.19707561628573
C            7.64962736345549       -0.27087881373298       -2.40385256622407
C            6.92959441715239       -0.02798657582624       -3.55912869630163
C            5.54664898865766       -0.09321575663347       -3.52279658835263
C            4.90455646830268       -0.38354069013308       -2.33864970481748
C            5.62954596737213       -0.60886222331832       -1.16203569160388
C            2.81787850815812        0.25781995995272        0.00418581395420
C            1.41502832472534        0.24338270645658       -0.00225651084165
C            0.71023091322018        1.48814632491219       -0.04468695702674
N            1.37039095150804        2.63998219792475       -0.06910443973470
C            0.71918220405725        3.80851183467128       -0.12917481613333
C            1.39268219713142        5.02954233848705       -0.15865397890826
C            0.69271665503557        6.22112215325784       -0.22037677569528
C           -0.69497089281473        6.21975857521739       -0.25496627521471
C           -1.39477625976863        5.02684243651370       -0.22736148663733
C           -0.72113380661362        3.80707391801076       -0.16537144084894
N           -1.37227082209404        2.63733698340898       -0.13708243326810
C           -0.71199175444552        1.48695002122643       -0.07479322557014
C           -1.41653650675913        0.24226026828945       -0.02737093743058
C           -2.81941775762590        0.25620747170194       -0.02597168947903
C           -5.62358928392805       -0.57312127449062        1.21692399353270
C           -4.89086687317591       -0.31377060054649        2.38162901406072
C           -5.52557203927976        0.00821247110073        3.56156617806981
C           -6.90836027334539        0.07322720804360        3.60494224049508
C           -7.63574831952457       -0.19933840683373        2.46085398212701
C           -7.02366074586155       -0.52752804005144        1.25862601343388
H           -8.16139852148040       -2.91271831637537        0.61644418305722
H           -9.41386640050860       -1.83217344632055        1.22925553652607
H           -9.41062960778934       -2.29959812162373       -0.46827740003704
H           -9.36574232351519        0.66621526923933        0.56313170701251
H           -8.10407384072618        1.23938188329539       -0.52885946599522
H           -9.39030985404429        0.19426498363028       -1.13299790395596
H           -8.73481875560383       -1.49597972584278       -2.42216609606834
H           -7.45403864374728       -2.01275041506504       -4.43348158057832
H           -4.97433734928243       -1.95982844078493       -4.35963339556523
H           -3.83164412544612       -1.41724525172210       -2.26769122158900
H           -3.42607632634956       -3.05655433788243        0.16887442755039
H           -0.99389224606450       -3.12561725420916        0.15725218316646
H            0.99360337973010       -3.12953433806105        0.02327208918506
H            3.42551180876073       -3.06040100334895        0.01356870667041
H            3.81903443459942       -1.33860574332844        2.34056627369367
H            4.95044516911719       -1.83412914109369        4.44927690592676
H            7.42939859015202       -1.90660027428465        4.53291092204947
H            8.72065599365942       -1.44938148964836        2.51370647517712
H            9.37278289722296        0.63752161744133       -0.52003409740025
H            9.38633426776217        0.20922995797936        1.18777069268529
H            8.10681963602694        1.24241349817825        0.54953341551310
H            8.15693976270830       -2.93635680974337       -0.49463372603047
H            9.41873572779704       -1.87457115759728       -1.12068382176250
H            9.39979882296177       -2.30438839162258        0.58664624580063
H            8.72692654851708       -0.22849622042739       -2.45026322623190
H            7.44343149889662        0.20264431455132       -4.48006257486198
H            4.96557816570132        0.08101934886299       -4.41626752079123
H            3.82732323188764       -0.43777486693666       -2.31806070668753
H            3.32095100186141        1.21284025380291       -0.00517129246787
H            2.47200300658592        5.01678644483127       -0.13308241107239
H            1.23262692121962        7.15610149556359       -0.24200333189538
H           -1.23497152678440        7.15369807518129       -0.30304570852737
H           -2.47409932487748        5.01211454195246       -0.25172299209240
H           -3.32302484464281        1.20982988500941       -0.07264382305138
H           -3.81366155621646       -0.36689929404551        2.35441377160113
H           -4.93905034516723        0.20756763614718        4.44617379617061
H           -7.41647251938571        0.32760682657908        4.52280965581263
H           -8.71271017225003       -0.15449591371344        2.51265487834075
