92
 energy: -138.302443625943 gnorm: 0.000051856752 xtb: 6.7.1 (edcfbbe)
C           -8.74468149654619       -2.11368932002439        0.42006326471930
C           -7.88982002626681       -0.88936911794762        0.04179364340177
C           -8.79632833375849        0.30104864786639       -0.32447698198443
C           -7.04109930864503       -1.24014839260306       -1.16596238259835
C           -7.66130591888916       -1.60416242269655       -2.35370858699836
C           -6.94330164339622       -1.91052996121147       -3.49520476791305
C           -5.56218219150590       -1.83921483773886       -3.46311523979045
C           -4.92019508061824       -1.48298682119571       -2.29548321552028
C           -5.64310386979823       -1.19643608301242       -1.13321626042091
N           -4.96718043684659       -0.85275808889987        0.02847186984669
C           -3.54730520520377       -0.87091969982736        0.02786451574930
C           -2.86305800306772       -2.08737462390910        0.07880397096408
C           -1.48718593812678       -2.11301046804326        0.07822995780065
C           -0.73026561827484       -0.93472243428195        0.03024430372555
C            0.72483240416345       -0.93842637692433        0.02723839617434
C            1.47626007746369       -2.12091437239600        0.05325095864350
C            2.85223955300230       -2.10186825976702        0.05048243220513
C            3.54261297996908       -0.88793712683797        0.02774179648996
N            4.96191074213145       -0.87515633381902        0.02630897345883
C            5.63809586246326       -1.17584927952114        1.20014921233984
C            4.91577323836000       -1.42792206536814        2.37075734043749
C            5.55833418890507       -1.74405773573536        3.54956877856334
C            6.93970447332996       -1.80778972440573        3.58511037543219
C            7.65722467705880       -1.53215107201095        2.43555529686179
C            7.03630357056800       -1.20915989278130        1.23637572165964
C            7.88519204764731       -0.88487833801631        0.02144776854717
C            8.77387811298155        0.32815807158836        0.35591030236142
C            8.75835066062665       -2.10786582654689       -0.31725617091939
C            7.03388953793005       -0.54937479026030       -1.18897011645172
C            7.65404274275348       -0.22932839196658       -2.38939602409671
C            6.93573442621316        0.05920761367636       -3.53517047228951
C            5.55380968359271        0.01516289681137       -3.49346389748864
C            4.91194199683558       -0.29856509601884       -2.31368278570814
C            5.63535705159250       -0.56740348646373       -1.14758542526580
C            2.82741589893246        0.29268078128054        0.00160693935023
C            1.43139670499309        0.28096010529394       -0.00553721925490
C            0.71708817084497        1.53888380029196       -0.04948528640890
N            1.40457809436427        2.66495260905330       -0.09187848359070
C            0.72309326545489        3.81951090089862       -0.13438682090992
C            1.41819914606147        5.04749762833813       -0.18245977311840
C            0.72004793433770        6.22047429259875       -0.22068413701452
C           -0.68891263734494        6.22441009063793       -0.21265702785787
C           -1.39320923328522        5.05529682817065       -0.16868288290221
C           -0.70459066095514        3.82332194314126       -0.13007596696975
N           -1.39204591626941        2.67214485533026       -0.09120954074094
C           -0.71036307157472        1.54234712046270       -0.05379213462205
C           -1.43087611988654        0.28780425499242       -0.01319229198505
C           -2.82695990713676        0.30574695666480       -0.01847781421200
C           -5.64003193741742       -0.50797250876073        1.19197663391541
C           -4.91558373599044       -0.18377342809862        2.34320103515829
C           -5.55700987104556        0.16280557977906        3.51400974019360
C           -6.93925960018367        0.18602213284486        3.56115356928074
C           -7.65816739647235       -0.15192418220271        2.42929277451029
C           -7.03860895371057       -0.50521951497918        1.23790992797300
H           -8.09859908897808       -2.94981815834228        0.68259114702090
H           -9.38243708389789       -1.89314169030275        1.27151040943002
H           -9.37712652674411       -2.41589155836280       -0.41006562833066
H           -9.43440335880513        0.57397266276906        0.51140465380943
H           -8.18645252294682        1.16389727992390       -0.58748144302118
H           -9.43141444847962        0.05912253523877       -1.17207684079276
H           -8.73896715817274       -1.65106687010090       -2.39611825173026
H           -7.45840798147508       -2.19246800444901       -4.40131529156283
H           -4.98040855469728       -2.05807744086264       -4.34668258577040
H           -3.84294854913319       -1.41811777552173       -2.28328713310769
H           -3.42610040047404       -3.00817932550631        0.11664575742191
H           -0.99688056014902       -3.07129283920847        0.12144615690043
H            0.98154633442209       -3.07778036022041        0.06927414344768
H            3.41069359652784       -3.02609511868205        0.06816800692214
H            3.83835705305346       -1.36762516912349        2.35660404941402
H            4.97667121168057       -1.93738862962854        4.43912985755039
H            7.45529084088846       -2.05858228437654        4.50005568865028
H            8.73511114115068       -1.56982255619428        2.48080427429601
H            9.40479794503558        0.59124355814188       -0.48852416692283
H            9.41526012844620        0.11626448548965        1.20682093048200
H            8.15134963546126        1.18727274141396        0.60074643364575
H            8.12536821485835       -2.95900454365580       -0.56293657893893
H            9.40052322542146       -1.90172559285782       -1.16896412477970
H            9.38767447139299       -2.38010645879788        0.52548983592508
H            8.73211509938140       -0.20513539871455       -2.43876537865536
H            7.45073812964995        0.30656610677420       -4.45138433018004
H            4.97063839404045        0.22241568083580       -4.37893893993690
H            3.83372543072248       -0.33910722798132       -2.29513584910846
H            3.33310061369689        1.24558148943499       -0.02004357301530
H            2.49715565869863        5.02215852754130       -0.18702298403358
H            1.24671982787815        7.16249765260692       -0.25717632424098
H           -1.21065561962008        7.16941035084771       -0.24228091575222
H           -2.47227990681948        5.03606429823558       -0.16224224254761
H           -3.32831937736528        1.26048669003929       -0.05493392112463
H           -3.83692667538610       -0.20571406631432        2.31958161836767
H           -4.97329260697670        0.41185568959666        4.38828976415126
H           -7.45402665319505        0.45739116911631        4.47068075456774
H           -8.73626790027907       -0.14084809096042        2.48276679201976
