92
 energy: -138.302275646352 gnorm: 0.000041472492 xtb: 6.7.1 (edcfbbe)
C           -8.77532253065891       -2.00581015116547        0.00013065340313
C           -7.88615293707588       -0.74792259474271        0.00032068526239
C           -8.76000438770632        0.52057442451801        0.00042332710795
C           -7.03593513187084       -0.75296289916583       -1.25695914372647
C           -7.65301193480815       -0.74606919611466       -2.50051979017101
C           -6.93112787507450       -0.75099421055279       -3.68033840126083
C           -5.54887672056158       -0.76254759904221       -3.62700640902593
C           -4.90946163750028       -0.76966372987020       -2.40484692873900
C           -5.63756780197806       -0.76522407318314       -1.21134799369910
N           -4.96561787102627       -0.77709685086457        0.00046672944821
C           -3.54308435730713       -0.79439446020073        0.00053510568641
C           -2.85760338892484       -2.01037706607886        0.00119020053993
C           -1.48116745808707       -2.03232796165467        0.00121649731907
C           -0.72801520089998       -0.85098999924503        0.00058110632078
C            0.72808604511867       -0.85092535436729        0.00056199908442
C            1.48133860695727       -2.03219851820617        0.00110673558906
C            2.85777156568307       -2.01012787075869        0.00112591558963
C            3.54314989877695       -0.79408782377585        0.00052585904101
N            4.96568215335259       -0.77670710318848        0.00045653543774
C            5.63774290086392       -0.76345796887373        1.21219324784353
C            4.90974006840006       -0.76631419590244        2.40575970325811
C            5.54926643060287       -0.75777683621780        3.62785229686918
C            6.93152396775585       -0.74636211848993        3.68104654897613
C            7.65330443041660       -0.74301894344912        2.50115960792320
C            7.03611634871713       -0.75135692908830        1.25766359061900
C            7.88622370847561       -0.74804792570835        0.00030316100946
C            8.76035553620774        0.52025699427833       -0.00145797614793
C            8.77511618018800       -2.00612876743776        0.00198361822438
C            7.03602028498263       -0.75471680788927       -1.25697869275503
C            7.65311229643236       -0.74966328410589       -2.50054062237939
C            6.93123853711800       -0.75594247371059       -3.68035936674729
C            5.54898311876664       -0.76689955843934       -3.62702727775950
C            4.90955321369177       -0.77222523533308       -2.40486573427023
C            5.63764931022180       -0.76657791228088       -1.21136584790322
C            2.82733439584105        0.38555810434536       -0.00002490360458
C            1.43092365419311        0.37080903491648       -0.00002792239107
C            0.71351649163238        1.62782961379703       -0.00071161791388
N            1.39815249341161        2.75642934516117       -0.00134163455481
C            0.71376519198789        3.90985453907254       -0.00201046634768
C            1.40560530047415        5.14069687536151       -0.00266870468922
C            0.70427307092025        6.31233708637452       -0.00332640185581
C           -0.70484095237094        6.31227347668674       -0.00336124879182
C           -1.40606670036842        5.14056962760122       -0.00274146358887
C           -0.71411439480640        3.90979044739892       -0.00204976227326
N           -1.39839780523916        2.75630397967172       -0.00141401003251
C           -0.71366019065773        1.62776605669162       -0.00074381701511
C           -1.43095692462433        0.37068316865012       -0.00006192996905
C           -2.82736782432606        0.38531102756958       -0.00007226373142
C           -5.63769162181699       -0.76540558504098        1.21221298104243
C           -4.90970069840120       -0.76985888289040        2.40578191859501
C           -5.54923807394700       -0.76296147639996        3.62787931592089
C           -6.93149575306235       -0.75159659045189        3.68107510314187
C           -7.65326429253492       -0.74653992931608        2.50118598845423
C           -7.03606362554604       -0.75319476097681        1.25768583798845
H           -8.15401956077886       -2.89998657800672        0.00004986428413
H           -9.41144191149681       -2.03060241019621        0.88056953443346
H           -9.41138478909495       -2.03040031981141       -0.88035561799834
H           -8.12752306747276        1.40686608413684        0.00058970361181
H           -9.39581259418638        0.55337009733213       -0.87996342669041
H           -9.39596525925517        0.55314536055235        0.88070887755143
H           -8.73104015809455       -0.73688136949465       -2.55740660096158
H           -7.44436365792851       -0.74560870281082       -4.63034617905635
H           -4.96448216915052       -0.76582824280394       -4.53565797382398
H           -3.83066588983939       -0.77691922213642       -2.37009170639598
H           -3.41845658843827       -2.93322531612882        0.00166100311029
H           -0.98830925102660       -2.99023160338806        0.00172697829462
H            0.98856323811923       -2.99014461274763        0.00161281166097
H            3.41870341525812       -2.93292821621992        0.00151446214543
H            3.83093947419982       -0.77348892807390        2.37110391224694
H            4.96495520060795       -0.75985243587608        4.53656033671373
H            7.44484541794674       -0.73989161805463        4.63100143778949
H            8.73133944974225       -0.73395334540486        2.55794124419479
H            9.39631978081617        0.55153513143902       -0.88178736864532
H            9.39617596870671        0.55407306636974        0.87888093921005
H            8.12806873994668        1.40668557951295       -0.00279331886114
H            9.41133271399238       -2.02968867579653        0.88238646273007
H            8.15362536727289       -2.90017394838611        0.00336528469781
H            9.41107170592786       -2.03221696859388       -0.87853643527151
H            8.73114371076300       -0.74088212058997       -2.55742839064998
H            7.44448566646955       -0.75197313685155       -4.63036781594210
H            4.96459783874228       -0.77109300012496       -4.53568001966142
H            3.83075430894064       -0.77896660666236       -2.37011067084481
H            3.33168864817124        1.33932705263383       -0.00046135528721
H            2.48461993874359        5.11834774025210       -0.00262332563999
H            1.22837047986884        7.25647930994089       -0.00382611946979
H           -1.22902390244281        7.25636827369865       -0.00388277193836
H           -2.48507926982347        5.11812156567169       -0.00274850344699
H           -3.33180397999422        1.33903616171919       -0.00057872376638
H           -3.83089990322785       -0.77691889404363        2.37112658835858
H           -4.96493599413806       -0.76623321569911        4.53658928442413
H           -7.44482635820205       -0.74638273702744        4.63103245071483
H           -8.73129886965322       -0.73745135627790        2.55796820980654
