68
 energy: -106.983097652202 gnorm: 0.000073816002 xtb: 6.7.1 (edcfbbe)
O           -5.24841206917096        0.28004135405407        1.71619946339784
P           -4.24326080278693        0.23403459330153        0.63587608339733
C           -3.41102022804282        1.82967285174651        0.36452884510233
C           -3.54727747280492        2.79862076121572        1.34912637529175
C           -2.92050520324910        4.02418817390161        1.20628741216725
C           -2.15726807001031        4.28096596847765        0.07847527923139
C           -2.02844167402216        3.31710737872821       -0.91027386875016
C           -2.65523305245866        2.09189008644826       -0.77252030698757
C           -4.95314579395206       -0.23503644005590       -0.97585660505437
C           -6.28596497148906        0.08462508540159       -1.19684487376528
C           -6.87930613596687       -0.22019453274222       -2.40890238213043
C           -6.13928373208249       -0.84508661579248       -3.40048461223475
C           -4.80974282419685       -1.16931148541212       -3.17845565784306
C           -4.21276187232206       -0.86571870432572       -1.96786647200136
C           -2.93267524849326       -0.99219713647307        0.93882806229978
C           -3.40901540027208       -2.27190372316322        1.33318884368229
C           -2.52231557773980       -3.31257640062328        1.61935792943353
C           -1.17534274665330       -3.05604891624768        1.49693288769232
N           -0.09844001292736       -3.85930621491122        1.69710492643608
C            1.07680009764164       -3.16359259173210        1.44532156735527
C            2.37084997031360       -3.58753259820090        1.52751261462720
C            3.39965688289502       -2.63202819976368        1.19387532068239
C            3.07934414638613       -1.34530423046040        0.82100783284782
P            4.47162666593763       -0.25447771451405        0.38987373370561
O            5.73496623951291       -0.62224743210158        1.05782521922820
C            3.91103232768670        1.43174421770416        0.79999953822038
C            3.09682664137344        2.18200169706678       -0.03936699142259
C            2.68650071016846        3.44417759317498        0.35191919655242
C            3.08828900232331        3.95962274081519        1.57440541644613
C            3.90974652188426        3.21650451338549        2.40720669535503
C            4.31932114504218        1.95265291972369        2.02042526390333
C            4.58858572545194       -0.30121957895107       -1.42831495289865
C            5.83611408559296       -0.04608619009407       -1.98296804023804
C            5.99858870219564       -0.04947200985330       -3.35666186920627
C            4.91291257518544       -0.30977081378420       -4.17819362367913
C            3.66876530917787       -0.57204022117783       -3.62577309394053
C            3.50212289882847       -0.56774490587849       -2.25219433830173
C            1.75545864819069       -0.89938649080443        0.74661767351893
C            0.72044874563184       -1.83424953267141        1.05747053289782
C           -0.66666255348741       -1.74547847606208        1.08558392052804
C           -1.59898610149407       -0.70700317974211        0.81471160497667
H           -4.15135005543746        2.57437891219210        2.21753861268224
H           -3.02690077459378        4.77686689909049        1.97380064581286
H           -1.66674837122627        5.23673144737698       -0.03350001844062
H           -1.43980967035840        3.52252841298573       -1.79255430402683
H           -2.56623492767732        1.34027411920815       -1.54336974747402
H           -6.84415609875787        0.56249681333607       -0.40303999001162
H           -7.91668320892863        0.02804861093482       -2.57940435830943
H           -6.60147096046499       -1.08519712813217       -4.34670812538351
H           -4.23760904424128       -1.66285169300242       -3.95058430753694
H           -3.18046631480083       -1.12805070986258       -1.78298296957344
H           -4.47601430992609       -2.41512741805439        1.41302121847427
H           -2.88805462891847       -4.28030932502338        1.92567454798504
H           -0.14000733538376       -4.81905910647978        2.00371698881919
H            2.64063858186676       -4.58922084156062        1.81960711785910
H            4.43669508551410       -2.92580049308214        1.24467174225106
H            2.79720307110278        1.78196133900662       -0.99765357448258
H            2.05336243806979        4.02880466530104       -0.29929968000449
H            2.76553697771047        4.94530306248974        1.87579926077264
H            4.22973309218294        3.62039548060469        3.35668288367242
H            4.96531640414908        1.35535214955520        2.64943369081279
H            6.66938847884926        0.14370162243575       -1.32008937105294
H            6.96958009017323        0.15011692983209       -3.78588949846971
H            5.03792462776978       -0.31337061038414       -5.25103842803313
H            2.82596085501124       -0.78216141367015       -4.26817370666487
H            2.53632676836853       -0.78082672056020       -1.81552502747268
H            1.51637272393986        0.12024696614315        0.49583196675980
H           -1.25126400304193        0.27238426747137        0.52811284646933
