68
 energy: -107.103293107300 gnorm: 0.000052839331 xtb: 6.7.1 (edcfbbe)
O           -2.93239888836209        0.79501876769074       -2.03850247297160
P           -3.55443746452352        0.51186286035811       -0.73035144974361
C           -5.19805882889913       -0.26320369500318       -0.87741240436344
C           -5.42166526923313       -1.05629699178067       -1.99497213932995
C           -6.64162111417689       -1.68593630419040       -2.16575583432826
C           -7.64000164516560       -1.52249657178219       -1.21836119736151
C           -7.41995300590761       -0.72692516483451       -0.10478054145033
C           -6.20045884587107       -0.09633435436388        0.06941239753609
C           -3.82115720371807        2.01738716365513        0.26424065801949
C           -3.76862369365110        2.03350927312467        1.65172219096888
C           -4.00037522917143        3.21600688596591        2.33287382649043
C           -4.28465706324018        4.37866657146487        1.63403923765822
C           -4.33275781642974        4.36435960959742        0.24883124341057
C           -4.09986230882535        3.18458521580904       -0.43495547943810
C           -2.56511075653465       -0.61427944535246        0.30018170285877
C           -3.13887587496205       -1.41586471390092        1.29249661798667
C           -2.36447407289491       -2.25358785091700        2.06882719417594
C           -0.99539825669069       -2.27529840754907        1.83550909384849
N           -0.01512387542434       -3.00422295572313        2.45425243371388
C            1.19831040253283       -2.70625158553702        1.89273857972371
C            2.46024583781516       -3.20260351036441        2.19331386710626
C            3.52585527136433       -2.71790355237901        1.46406653581550
C            3.34978543304776       -1.76365228847152        0.45661760574515
P            4.86737766326042       -1.20284994708350       -0.37805202582249
O            5.89037705817714       -2.26067575235720       -0.49188538252022
C            5.44332362743977        0.23891985367536        0.57818178488711
C            4.58274507304655        1.06537985419673        1.28916951595220
C            5.08968112970746        2.15547237621744        1.97465779541192
C            6.44995942577757        2.42091836452530        1.95272846638678
C            7.31010520283348        1.59278796620266        1.24899140570212
C            6.80642106463517        0.50246516831722        0.56226638086742
C            4.35127501796378       -0.53482465687125       -1.99245947049381
C            4.55004967368804       -1.34219282826284       -3.10420334222214
C            4.17348642582486       -0.89885188710388       -4.35971298361721
C            3.59628486919121        0.35272782809459       -4.50400398638609
C            3.40241098080300        1.16250713060789       -3.39558268585762
C            3.78018068817810        0.72335490537472       -2.13909725406973
C            2.09261356708052       -1.27059554751942        0.14755075885920
C            1.00697241045551       -1.74461038439488        0.86922821075482
C           -0.40384112233843       -1.46835528566301        0.83113980160726
C           -1.20052742724571       -0.63603433150704        0.06018981408285
H           -4.63023060816357       -1.15903351394809       -2.72501170207653
H           -6.81423766583105       -2.30191159076230       -3.03625226261441
H           -8.59374372521178       -2.01189438746828       -1.35072379060589
H           -8.20189446344755       -0.59570996940067        0.62907656775224
H           -6.02765434738274        0.53256292098093        0.93147567977109
H           -3.54057876577570        1.12581956169856        2.19203329870536
H           -3.95789001910389        3.23068424743090        3.41230436076000
H           -4.46551314190739        5.29883275241137        2.16997369364037
H           -4.55039900635106        5.27094123828946       -0.29675869743362
H           -4.12171495386578        3.14961000088683       -1.51586017154651
H           -4.20817960184550       -1.38238203603311        1.44128624311048
H           -2.81076122667626       -2.87499793755356        2.83047351877290
H           -0.16345394447672       -3.66734585370784        3.19760048747020
H            2.60309829382216       -3.94027016666063        2.96834182105573
H            4.52865613125485       -3.07626101433272        1.65084528736270
H            3.52401258068267        0.84786861630528        1.31138570757524
H            4.42169875036592        2.79865872693186        2.52900817211541
H            6.84136651144642        3.27250385044741        2.48966475279374
H            8.37091554766027        1.79614417577174        1.23618959038889
H            7.45748095886772       -0.16430959464067        0.01329750559591
H            5.01028255542519       -2.31101926916799       -2.96586928516260
H            4.33007066330958       -1.52780689341515       -5.22392132763989
H            3.30052257870813        0.70093072372865       -5.48276631388031
H            2.95681058850487        2.13987521496886       -3.51120907299398
H            3.64268442794682        1.35712750779036       -1.27458039456384
H            1.95870684767424       -0.54339800663629       -0.63923233116526
H           -0.78813802518253       -0.01730008586804       -0.72390680682025
