68
 energy: -107.103800101184 gnorm: 0.000116783684 xtb: 6.7.1 (edcfbbe)
O           -5.41658922113428        0.13088075641219        1.54571270899116
P           -4.30522737542173        0.14839573429297        0.57424876708210
C           -3.47307653989028        1.76603737354718        0.46644914236898
C           -3.53087347353291        2.58185074115941        1.58839266930075
C           -2.89218599515335        3.80942741533829        1.58713299247151
C           -2.19700285214176        4.22345742628678        0.46203046622961
C           -2.14645874951042        3.41404991333309       -0.66227332840418
C           -2.78191392849217        2.18491835663621       -0.66365427015331
C           -4.83915694186884       -0.25221924624182       -1.12169244893289
C           -6.15190398255815        0.04418096990909       -1.46234433547957
C           -6.61481120677705       -0.22597706227056       -2.73794121527795
C           -5.76402521480519       -0.79237840984884       -3.67401969299237
C           -4.45453545880647       -1.09397000773348       -3.33344371016999
C           -3.98854414358886       -0.82537255521029       -2.05856259208110
C           -2.99276825325355       -1.05257282783671        0.96443097319305
C           -3.41790300639191       -2.29388477154344        1.44917511115097
C           -2.51934289037779       -3.29091659415361        1.76815536605161
C           -1.16818958498271       -3.01777768258831        1.59524650397574
N           -0.07542072829393       -3.80998086153869        1.83105953455059
C            1.06657601765715       -3.11450887637947        1.53263695641851
C            2.39650943678902       -3.50364214652744        1.62891341290822
C            3.35912676036858       -2.58408141134034        1.26585064795103
C            3.01669976789400       -1.30535086147028        0.81588027925549
P            4.39187307195120       -0.19930166507118        0.37133076537983
O            5.64499631900054       -0.51490364416122        1.08409743733767
C            3.78363390584770        1.48574434393533        0.71019106418136
C            2.98578105952260        2.19678558927406       -0.17724752370726
C            2.53802484168434        3.46064617961367        0.16501045950506
C            2.88363702464110        4.01518022486066        1.38736716139118
C            3.68683976519887        3.31009748800143        2.26959342029156
C            4.13547604996331        2.04585101205704        1.93086636711835
C            4.56571567560848       -0.30034163024849       -1.44134036277307
C            5.82186215015262       -0.02301663622608       -1.96450459842157
C            6.02852088908640       -0.06284990151507       -3.33180733277032
C            4.97786301631332       -0.38041996621295       -4.17819047734900
C            3.72503948704495       -0.66326016942366       -3.65715969735841
C            3.51480604578205       -0.62374210180582       -2.28974934801692
C            1.69163694918661       -0.91101598551645        0.71906054417794
C            0.70885543870172       -1.82055566237577        1.07776103002411
C           -0.72688029495640       -1.75978228093601        1.11513861289546
C           -1.64725494688948       -0.77340811797064        0.79348694991849
H           -4.08791647089769        2.24023505163146        2.45020976332601
H           -2.93749675364938        4.44189297713344        2.46167162346265
H           -1.69813639046211        5.18143684091798        0.45946161886802
H           -1.61233747726945        3.74204730434309       -1.54217015270089
H           -2.74975860966733        1.55287700593008       -1.53949319649838
H           -6.79838797819572        0.47601247068018       -0.71039503575885
H           -7.63696902862354        0.00357999307550       -3.00140451086450
H           -6.12410694285492       -1.00471706534733       -4.66998538194964
H           -3.79576331154519       -1.54154741199916       -4.06340425218298
H           -2.97172048982645       -1.06766491331496       -1.78253263567346
H           -4.48019999100155       -2.45020292229465        1.57780077614312
H           -2.85535142430904       -4.24648203129866        2.14125158910934
H           -0.10626000509969       -4.75181149078533        2.18629298993119
H            2.66917372591080       -4.48732104411146        1.98004825627405
H            4.40927300229148       -2.83125132962499        1.33476183617501
H            2.72884731091314        1.76569718318848       -1.13450444938580
H            1.92089247629698        4.01685289735987       -0.52508319348364
H            2.53181064837286        5.00193980524102        1.65014241128218
H            3.96306612905376        3.74430443537347        3.21938934370549
H            4.76998899191991        1.47825645003133        2.59801386229168
H            6.62793931307388        0.21157048534230       -1.28257402847796
H            7.00653773923133        0.15303719819600       -3.73651518878633
H            5.13741088144745       -0.41284050959106       -5.24599824539657
H            2.90939494316570       -0.91724904743749       -4.31849783390013
H            2.54199261773088       -0.85296995378399       -1.87860535962177
H            1.43177237665971        0.08321628881245        0.38793615872816
H           -1.32293708218199        0.18930250565719        0.42797161541304
