  95
       -147.77093101
 C          4.2497070622        4.1566498178       -0.9308208429
 C          4.9825763399        3.4046279420       -1.8366797333
 C          5.2137640075        2.0625153555       -1.6026385261
 C          4.7095419487        1.4646855747       -0.4480716739
 N          4.9235413889        0.0997689599       -0.2050720099
 C          3.9035649800       -0.8748959361       -0.0683690439
 C          2.5383645843       -0.7229793644       -0.3022785005
 C          1.6727780629       -1.7887218119        0.1106854278
 C          0.3259620813       -1.7087571926       -0.0341277539
 C         -0.2976977365       -0.5697556093       -0.6114742612
 C         -1.7280673270       -0.4576122450       -0.7200386234
 C         -2.3501728058        0.8016878484       -0.7900075998
 C         -3.7256042957        0.9287251389       -0.8769292855
 C         -4.3410397338        2.2637109792       -0.9390775087
 C         -5.4214248506        2.5147158339       -1.7821907637
 C         -5.9847708910        3.7761724571       -1.8401960025
 C         -5.4852719754        4.8033079863       -1.0606784652
 C         -4.4048252349        4.5741433895       -0.2117025755
 C         -3.8525892359        5.6580709150        0.6097454615
 C         -4.6691848973        6.5867348422        1.2527443725
 C         -4.0892668638        7.5885720958        2.0106237556
 C         -2.7062015216        7.6291823739        2.1042983267
 N         -1.9163797774        6.7598072862        1.4961968616
 C         -2.4741482491        5.8086044694        0.7726333456
 C         -3.8445188197        3.3026855517       -0.1594386776
 C         -4.5195554390       -0.2181342659       -0.9036334346
 C         -3.9333435347       -1.4828058004       -0.8414368859
 C         -4.7752229777       -2.6895868970       -0.8729307950
 C         -4.3969459839       -3.8046814599       -1.6174461462
 C         -5.1959240935       -4.9330264434       -1.6414679724
 C         -6.3807235635       -4.9671338126       -0.9296570559
 C         -6.7770498109       -3.8630948804       -0.1779112255
 C         -8.0316710471       -3.8890954860        0.5839307266
 C         -9.1933869100       -4.4565499050        0.0628500045
 C        -10.3503019066       -4.4508263821        0.8217482886
 C        -10.3099258280       -3.8728076193        2.0817345690
 N         -9.2150585083       -3.3354558358        2.5932097006
 C         -8.1138312736       -3.3461723764        1.8677064499
 C         -5.9664801965       -2.7334829490       -0.1570214424
 C         -2.5567387889       -1.5935124664       -0.7487863162
 C          0.5648778088        0.4522787558       -1.0876969498
 C          1.9162515474        0.3870742324       -0.9529924931
 N          4.4428820913       -2.0666474555        0.2745678842
 C          5.7514983739       -1.9005502420        0.3094555542
 C          6.7461475776       -2.8910363893        0.5631384849
 C          6.3843451592       -4.2227512958        0.7747595572
 C          7.3504247305       -5.1829467210        0.9833480920
 C          8.6885638248       -4.8098707675        0.9714148777
 C          9.0556371725       -3.4942238255        0.7683881501
 C          8.1017754413       -2.4883984898        0.5672950041
 C          8.4513372199       -1.0883583748        0.3910620471
 C          9.7725646857       -0.6494986178        0.4846771672
 C         10.1195736371        0.6803168602        0.3638751401
 C          9.1302167996        1.6433917952        0.1609021002
 C          7.8206740093        1.2613131162        0.0527645641
 C          7.4397374525       -0.0984807087        0.1413718412
 C          6.1115303122       -0.5405782457        0.0363311702
 C          3.9717458483        2.2208527541        0.4613543031
 C          3.7454006382        3.5616451444        0.2150963237
 H          4.0704646494        5.2040057402       -1.1191802079
 H          5.3713597589        3.8643967574       -2.7329230076
 H          5.7795647644        1.4671306606       -2.3045005030
 H          2.1359365230       -2.6452367603        0.5729335578
 H         -0.2902834518       -2.5124826817        0.3388043514
 H         -1.7454199018        1.6938564279       -0.7596288941
 H         -5.8057207899        1.7237124382       -2.4090161317
 H         -6.8170423786        3.9623597263       -2.5033364380
 H         -5.9177016881        5.7909209900       -1.1256743585
 H         -5.7444208798        6.5098424291        1.1719933491
 H         -4.6962535870        8.3190355621        2.5227884590
 H         -2.2033139727        8.3869474540        2.6902778960
 H         -1.7849184546        5.1361493532        0.2780408265
 H         -3.0332738744        3.1107024898        0.5270231379
 H         -5.5924497942       -0.1265983874       -0.9721690519
 H         -3.4838674293       -3.7781503817       -2.1935218628
 H         -4.8937002141       -5.7929100625       -2.2213892478
 H         -6.9914146398       -5.8580185970       -0.9379772520
 H         -9.1906856976       -4.8780404023       -0.9325503719
 H        -11.2651414164       -4.8791087744        0.4421070891
 H        -11.1878408221       -3.8353283677        2.7128315317
 H         -7.2410486973       -2.9126066664        2.3392860315
 H         -6.2682342619       -1.8753765049        0.4251473679
 H         -2.1148011287       -2.5764141960       -0.7108590254
 H          0.1387508308        1.2886284882       -1.6215158294
 H          2.5250562169        1.1607279304       -1.3901602257
 H          5.3338162976       -4.4677586878        0.7626737415
 H          7.0739881943       -6.2131852744        1.1481712500
 H          9.4551621369       -5.5557687769        1.1235295566
 H         10.1076352092       -3.2578291769        0.7652570511
 H         10.5614683109       -1.3608633803        0.6686715668
 H         11.1545089930        0.9767892854        0.4417280975
 H          9.3971624025        2.6874678492        0.0940941981
 H          7.0597828906        2.0116175224       -0.0822923187
 H          3.5804392976        1.7466314052        1.3489391262
 H          3.1760674847        4.1456558858        0.9222883361
