  34
  -61.7350562174000        1.00000000000000      !
 Br         6.6347829592        0.4202320642       -0.0178934012
 C          4.7546822729        0.7059427980        0.0007357650
 C          4.2635753083        2.0008067819        0.0122433623
 C          2.8953218541        2.2080081306        0.0230665285
 C          2.0002617963        1.1411438047        0.0216036470
 N          0.6849024147        1.2884326284        0.0270802186
 C         -0.1648406417        0.2763258697        0.0215144502
 C         -1.5757145830        0.4754399057        0.0181382451
 C         -2.0747913843        1.7906128072        0.0213780459
 C         -3.4212991632        2.0357134132        0.0123638643
 C         -4.2975997563        0.9489780882        0.0003225612
 Br        -6.1751447131        1.2766092016       -0.0162668135
 C         -3.8434090300       -0.3475564331       -0.0013721546
 C         -2.4690915178       -0.6231136236        0.0079471900
 C         -1.9437572572       -1.9673658134        0.0050698696
 C         -2.7604672822       -3.1081547969       -0.0017832981
 C         -2.2248047686       -4.3736194183       -0.0048239381
 C         -0.8410767664       -4.5555826999       -0.0008286084
 C         -0.0128987507       -3.4640852113        0.0063539259
 C         -0.5428450642       -2.1620817098        0.0092802747
 C          0.3579996893       -1.0545758585        0.0147692631
 N          1.6666979198       -1.2182217675        0.0110993920
 C          2.5323129440       -0.2144050863        0.0110797394
 C          3.9102941721       -0.3935073510        0.0004336179
 H          4.9402837578        2.8402062012        0.0124659673
 H          2.4926759084        3.2081487951        0.0319150835
 H         -1.3641660219        2.6023736125        0.0315587553
 H         -3.8053562604        3.0436713658        0.0143804938
 H         -4.5629920137       -1.1494371250       -0.0120910594
 H         -3.8333854430       -3.0035164576       -0.0047158444
 H         -2.8787869652       -5.2326043193       -0.0102779905
 H         -0.4273798335       -5.5525258101       -0.0037333194
 H          1.0609402803       -3.5724933260        0.0100290484
 H          4.3020221865       -1.3980340460       -0.0070895337
