  66
       -104.91819934
 C         -7.6665661255        0.9020821117        1.6252061585
 C         -6.2882132926        0.4984272592        1.1028073588
 C         -5.4284123897        0.0654060983        2.3075477899
 C         -5.5878034228        1.6331756196        0.3753544989
 C         -5.9916771463        2.9585177584        0.4150746932
 C         -5.3052372260        3.9323080900       -0.2909223995
 C         -4.2202875855        3.5885294004       -1.0771876476
 C         -3.8074522273        2.2707509773       -1.1396708240
 C         -4.4661952833        1.3029979515       -0.3918935830
 N         -4.0935102924       -0.0562402599       -0.4663668516
 C         -2.8296874388       -0.5159887057       -0.1802450459
 C         -1.7834374123        0.3709231911        0.1217297045
 C         -0.5158942667       -0.0884431464        0.3902065917
 C         -0.2357485739       -1.4571630801        0.4019510879
 C          1.0970739786       -1.9946816425        0.6981683775
 O          1.2785965090       -3.1311574499        1.0951456934
 C          2.2549818931       -1.0720901404        0.4824784077
 C          3.2710602752       -1.0300187711        1.4344557282
 C          4.3675151918       -0.2094327808        1.2440832002
 C          4.4508367825        0.5455509184        0.0893574565
 S          5.9046533796        1.5733577876       -0.1655217760
 O          5.7972056213        2.1992186363       -1.4573173673
 O          6.0866447531        2.4177807417        0.9857501486
 C          7.2286017142        0.3590353759       -0.2028488628
 C          8.1493478047        0.3138289435        0.8244900362
 C          9.1420148614       -0.6524501207        0.7992021896
 C          9.1947408340       -1.5586035769       -0.2479422810
 C          8.2634289313       -1.5029640804       -1.2740919118
 C          7.2706873630       -0.5380164668       -1.2523733007
 C          3.4665537339        0.4955943157       -0.8780474551
 C          2.3587857796       -0.3095679353       -0.6784402336
 C         -1.2967837577       -2.3440339275        0.1962777140
 C         -2.5604760408       -1.8919064998       -0.0923458935
 C         -5.2074874749       -0.9036967391       -0.6467056611
 C         -5.2023450265       -1.8953646948       -1.6194468560
 C         -6.3249747900       -2.6788718609       -1.8093626886
 C         -7.4572452273       -2.4536691763       -1.0470530418
 C         -7.4756208139       -1.4357007875       -0.1083607193
 C         -6.3569105641       -0.6459333110        0.1064045455
 H         -7.5723034349        1.7132879951        2.3428005066
 H         -8.1302291328        0.0661708199        2.1430398035
 H         -8.3152778863        1.2203943540        0.8121541573
 H         -4.4313507606       -0.2427891989        2.0052543470
 H         -5.3321534329        0.8928419105        3.0076431268
 H         -5.9035679404       -0.7701096392        2.8175459492
 H         -6.8483721995        3.2495528170        1.0006517841
 H         -5.6307292037        4.9601469337       -0.2375018362
 H         -3.7024192145        4.3411283946       -1.6520848161
 H         -2.9877590723        1.9847179500       -1.7814429161
 H         -1.9756293350        1.4305585486        0.1725809830
 H          0.2607148573        0.6234452947        0.6280351375
 H          3.1829791463       -1.6421600658        2.3193240364
 H          5.1559015822       -0.1437696982        1.9778770125
 H          8.0763121514        1.0405613211        1.6185557587
 H          9.8717258042       -0.6982804135        1.5933734966
 H          9.9680014252       -2.3121430610       -0.2667462750
 H          8.3122595482       -2.2099672719       -2.0880222694
 H          6.5376463281       -0.4622401819       -2.0404314753
 H          3.5842086985        1.0953667726       -1.7672812689
 H          1.5833009394       -0.3640199702       -1.4281632296
 H         -1.0986900663       -3.4032967537        0.2630557330
 H         -3.3577005348       -2.6058326536       -0.2231764863
 H         -4.3258470060       -2.0364231651       -2.2338820920
 H         -6.3180581670       -3.4538078184       -2.5607374079
 H         -8.3368587519       -3.0623615473       -1.1921188690
 H         -8.3779266563       -1.2674504734        0.4565105625
