  66
       -104.83714053
 C         -7.2810962146       -1.2415715101        1.8943110323
 C         -6.8383157423       -0.8490095152        0.4710065121
 C         -8.0191701691       -0.9868069237       -0.5091222777
 C         -5.7327764996       -1.7844801874        0.0330022011
 C         -5.9809242927       -3.1463370221       -0.0686518217
 C         -5.0071876413       -4.0382340773       -0.4789420699
 C         -3.7440211910       -3.5692862254       -0.8092712691
 C         -3.4663530362       -2.2256133393       -0.7134456005
 C         -4.4463829309       -1.3180573241       -0.2827155548
 N         -4.1333749095        0.0197767427       -0.1901632378
 C         -2.8012743812        0.4359170761       -0.4734061632
 C         -2.4791036164        1.0052931470       -1.7090844162
 C         -1.1928002139        1.3987298074       -1.9681529670
 C         -0.1678911198        1.2161713378       -1.0112733986
 C          1.1574944245        1.6937717913       -1.3480741692
 O          1.3104578446        2.5242790124       -2.2803163390
 C          2.3127870417        1.2237313116       -0.5895056591
 C          3.4401790146        2.0619315992       -0.4991344906
 C          4.5546939967        1.6585403867        0.1975003676
 C          4.5755504265        0.4062874713        0.7952115010
 S          6.0495384762       -0.1352366345        1.6415463223
 O          6.6581224115        0.9869961421        2.3088759239
 O          5.7369477254       -1.3054607318        2.4230608766
 C          7.1161480721       -0.6279661207        0.2789129101
 C          8.0936056296        0.2378659061       -0.1700684689
 C          8.8785572926       -0.1308962934       -1.2500344801
 C          8.6716884542       -1.3543435827       -1.8676169881
 C          7.6862974732       -2.2150947655       -1.4082382542
 C          6.9000840710       -1.8495067164       -0.3289772074
 C          3.4995968901       -0.4590949924        0.6676547570
 C          2.3749447287       -0.0587281751       -0.0187200329
 C         -0.5216644090        0.6903384051        0.2455914785
 C         -1.8128266250        0.2976282690        0.5037761366
 C         -5.0657330596        0.9640931449        0.1786284843
 C         -4.6881265207        2.3137261458        0.2523182288
 C         -5.5995218142        3.2816153875        0.6055663792
 C         -6.9066865096        2.9239331846        0.9014292551
 C         -7.2794107207        1.5933045977        0.8475301244
 C         -6.3841485878        0.5942758951        0.4916984523
 H         -7.6269434889       -2.2708710012        1.9204442043
 H         -8.0878697868       -0.6006254064        2.2378111801
 H         -6.4452379632       -1.1417541951        2.5840008191
 H         -7.7024134620       -0.7115592607       -1.5131955482
 H         -8.3855068820       -2.0088030395       -0.5325107878
 H         -8.8409690434       -0.3392933170       -0.2183801105
 H         -6.9597048860       -3.5281669054        0.1773376606
 H         -5.2334840147       -5.0909479682       -0.5464045356
 H         -2.9783211395       -4.2526261724       -1.1422772885
 H         -2.4872345934       -1.8574125231       -0.9752131729
 H         -3.2539963059        1.1252599520       -2.4522771716
 H         -0.9240091080        1.8439697232       -2.9135796940
 H          3.4004495882        3.0319498840       -0.9696469964
 H          5.4112847400        2.3054084109        0.3055188846
 H          8.2339029935        1.1757179062        0.3440933130
 H          9.6508652875        0.5330776170       -1.6082601091
 H          9.2844577952       -1.6412610821       -2.7094171695
 H          7.5332863711       -3.1691456913       -1.8900695705
 H          6.1342173600       -2.5008440629        0.0616800043
 H          3.5621522957       -1.4366259368        1.1200597565
 H          1.5578254559       -0.7514527923       -0.1520130713
 H          0.2136045685        0.6301383250        1.0326569311
 H         -2.0805237658       -0.1040339667        1.4706930745
 H         -3.6694615453        2.5896159160        0.0318865757
 H         -5.2917229690        4.3145252220        0.6542412778
 H         -7.6289915535        3.6755191968        1.1795649974
 H         -8.2970523390        1.3325163894        1.0938149247
