66
 energy: -104.918294013499 gnorm: 0.000060982175 xtb: 6.7.1 (edcfbbe)
C           -7.64707151397638        0.92452762616213        1.62568832367732
C           -6.27376648688484        0.51165583817107        1.09717881555598
C           -5.40719957326095        0.08602455049466        2.29975365076390
C           -5.57422203213194        1.63770639108562        0.35552617273860
C           -5.97356514465856        2.96468755310870        0.38513578787539
C           -5.28676280380448        3.92982468105506       -0.33234530909717
C           -4.20530214906638        3.57574833599609       -1.11887319354645
C           -3.79732270469359        2.25606197532540       -1.17164352516856
C           -4.45761848864954        1.29691963938895       -0.41424949708457
N           -4.09135395589927       -0.06444422422663       -0.48133593984567
C           -2.82841340283964       -0.52685463206961       -0.19595750289594
C           -1.78184869408610        0.35873620870074        0.10927910693327
C           -0.51550879314616       -0.10172358183146        0.38141810024307
C           -0.23566481372698       -1.47066579945801        0.38971559619302
C            1.09420073936930       -2.01257325352720        0.69083985339867
O            1.27169903827364       -3.15806699090686        1.06365926988647
C            2.25456865887011       -1.08410546772836        0.51708012834181
C            3.24742145665710       -1.05821803039717        1.49377136087338
C            4.34503540217965       -0.23036871703173        1.34670940945997
C            4.45250273465386        0.54972728214143        0.21087376474990
S            5.90903036593689        1.58510795563624        0.00993873429118
O            5.77726041399393        2.32166871408426       -1.21980587034476
O            6.12770405872417        2.32245045366425        1.22653430527149
C            7.21834139447414        0.36745831217070       -0.16798254230382
C            8.12199184794865        0.17655215756658        0.85791314742882
C            9.10213319940994       -0.79317674679959        0.72218398896639
C            9.15983377104949       -1.55783196158930       -0.43223672905829
C            8.24605106814782       -1.35652198429627       -1.45578011612129
C            7.26552280301199       -0.38784856742575       -1.32360711083907
C            3.49229124449661        0.51565410310376       -0.78119364774455
C            2.38374581629280       -0.29805592663404       -0.62547482913735
C           -1.29674438709575       -2.35625675325521        0.17714002017822
C           -2.55994885369424       -1.90313069098424       -0.11156492904914
C           -5.21033143112327       -0.90816100321492       -0.64902521536652
C           -5.21676789716837       -1.90590567330743       -1.61549881286700
C           -6.34374742401832       -2.68662689759411       -1.79117103102377
C           -7.46892124882336       -2.45262533770874       -1.02106733753317
C           -7.47634302828802       -1.42791019024173       -0.08955778735399
C           -6.35324460816030       -0.64057569773568        0.11068873077209
H           -7.54509154169166        1.74240512141402        2.33455323203086
H           -8.10935494253510        0.09516714930463        2.15510170999313
H           -8.30090520351879        1.23683936272992        0.81443903070377
H           -4.41297319734855       -0.22714105888194        1.99357584854832
H           -5.30429054851904        0.91873516814546        2.99242556617346
H           -5.88109971665563       -0.74407321926859        2.81944013613737
H           -6.82693819078814        3.26377155963275        0.97153052231175
H           -5.60902554015040        4.95908250652720       -0.28724576780138
H           -3.68655978813745        4.32174251542014       -1.70153644525404
H           -2.97997871274059        1.96161406444037       -1.81263464439267
H           -1.97368347464080        1.41848743688938        0.16104323563340
H            0.25985422578000        0.60969090991910        0.62461088746403
H            3.14026914655771       -1.68828992090995        2.36383050473559
H            5.11484554337049       -0.17532178449105        2.10054701046137
H            8.04833936300368        0.79799931965779        1.73682385039126
H            9.81879989598785       -0.95148007910300        1.51382228691368
H            9.92367581356139       -2.31390719008556       -0.53726679007938
H            8.29906287183690       -1.95307706277127       -2.35388112563563
H            6.54666903573777       -0.19934838170918       -2.10565924470435
H            3.62604596447519        1.13746403723878       -1.65284977215698
H            1.62665436725394       -0.33944794134878       -1.39459035146355
H           -1.09886688914580       -3.41580112394431        0.24059985039695
H           -3.35708621184366       -2.61660590547091       -0.24518649075154
H           -4.34621551337904       -2.05377802168627       -2.23675528867054
H           -6.34569540400565       -3.46641588458185       -2.53756614805570
H           -8.35165804559905       -3.05947475771717       -1.15457101833037
H           -8.37352462703509       -1.25243573849178        0.48127399863903
