66
 energy: -104.842647660902 gnorm: 0.000133063959 xtb: 6.7.1 (edcfbbe)
C           -7.33532728094842       -1.24655409407759        1.84850449211766
C           -6.84678469386180       -0.84247311904985        0.44400390717494
C           -7.99744590139252       -0.96102686686241       -0.57376325036031
C           -5.73504107690558       -1.78155587483525        0.02877375426695
C           -5.98477673807121       -3.14293802475553       -0.07482015836084
C           -5.00503209326893       -4.03880010463908       -0.46173559297304
C           -3.73413735413998       -3.57426558935948       -0.76598495752270
C           -3.45601399641924       -2.23024321593869       -0.67147592338412
C           -4.44275264235069       -1.31918448589874       -0.26606069029797
N           -4.12998381225775        0.01938862088889       -0.17457345096884
C           -2.79689742525698        0.43515464987489       -0.45711121292053
C           -2.46864389877731        0.96924141303842       -1.70513367915136
C           -1.18039519447295        1.35810534172482       -1.96733390879399
C           -0.16342174191550        1.20506863409343       -0.99882847604421
C            1.16631919650882        1.66435172154901       -1.33588940077952
O            1.32840595276352        2.47735642856057       -2.29137105175714
C            2.32048398457428        1.20557292940875       -0.57283424142460
C            3.45631156943192        2.03421231526968       -0.50975592571553
C            4.57237652917050        1.63509816181956        0.18761778577896
C            4.58480639297866        0.39759361002349        0.81402034684666
S            6.06567234495030       -0.14532288902603        1.64983488417132
O            6.67632881004012        0.97400606171578        2.32015350060032
O            5.75980659537965       -1.32071799296848        2.42576844967307
C            7.11911510760723       -0.62415575957131        0.27219615952496
C            8.07797266255844        0.25485188703880       -0.19086429141934
C            8.84712929537888       -0.09976948821261       -1.28684583901877
C            8.64354475080451       -1.32318516199299       -1.90558236473071
C            7.67778259941667       -2.19789158263462       -1.43139281621350
C            6.90698969477613       -1.84586347152957       -0.33642693497355
C            3.49796103443578       -0.45698766002553        0.71839636895192
C            2.37201405580518       -0.06211661235039        0.03036043281625
C           -0.52354582461043        0.71491746917224        0.26989589085122
C           -1.81651836087120        0.32797474799177        0.53038050258828
C           -5.06198738962400        0.96477098233124        0.19366395537506
C           -4.67935082944521        2.31167443026665        0.28100402848628
C           -5.58879679879947        3.28017929021571        0.63836123973500
C           -6.89946385883767        2.92547750708859        0.92109777919266
C           -7.27816606968678        1.59742920555766        0.84869249172145
C           -6.38416219731614        0.59781376209300        0.49122072730042
H           -7.68958069021377       -2.27322551506040        1.85353432850163
H           -8.14784000779388       -0.60388974280120        2.17459163244074
H           -6.52012642916890       -1.16027432893511        2.56425237712314
H           -7.64811570847008       -0.67553079652834       -1.56408262229011
H           -8.36825507631874       -1.98067351253548       -0.62122127759985
H           -8.82366117250573       -0.31134698655141       -0.30047336824409
H           -6.96970188603977       -3.52153391686179        0.15088681584559
H           -5.23264759223227       -5.09118610674785       -0.53009607717888
H           -2.96220805472695       -4.26058440438118       -1.07789537120993
H           -2.47031153903542       -1.86618282642801       -0.91356953866695
H           -3.23850582750828        1.06774346017994       -2.45653219158247
H           -0.90815847944530        1.77581294525863       -2.92424739108929
H            3.42353434442164        2.99314847712824       -1.00302511562513
H            5.43712689963579        2.27451019741841        0.27220450616562
H            8.21655105476321        1.19222512981519        0.32472075069530
H            9.60416494044153        0.57520994596721       -1.65695941782400
H            9.24373972684292       -1.59905379490496       -2.76006072304861
H            7.52759912318262       -3.15189552381959       -1.91422605643775
H            6.15580487660706       -2.50760032702650        0.06525642504789
H            3.55483235389447       -1.42323675208788        1.19520834730712
H            1.54576385458741       -0.74797725520366       -0.07854859398645
H            0.20744759980984        0.67724742443225        1.06216819001225
H           -2.08987082088092       -0.04704738709937        1.50629231249920
H           -3.65842015317710        2.58534474611848        0.06792407241073
H           -5.27678612218835        4.31120012455726        0.69920405977739
H           -7.62040563481339        3.67754292971717        1.20157488267077
H           -8.29990590949419        1.33908222309294        1.08041557707371
