  67
       -109.35742132
 C         -0.4020120163        3.7758983977       -0.3658386521
 C         -1.7687937781        4.0725841737       -0.2965821775
 C         -2.6917969407        3.0428424669       -0.2245345931
 C         -2.2831997818        1.7193930795       -0.2311381090
 N         -3.2203139415        0.7017455012       -0.0533540925
 C         -3.1767760979       -0.2635387638        0.9323104953
 C         -2.2657099908       -0.4233209395        1.9671331816
 C         -2.4732546915       -1.4670744556        2.8489259525
 C         -3.5654824935       -2.3208553336        2.7203027925
 C         -4.4945958524       -2.1441216104        1.7098147125
 C         -4.3049389287       -1.1063962949        0.8115382609
 C         -5.0600089598       -0.6164957694       -0.3125214985
 C         -6.2325059042       -1.0206050364       -0.9285806684
 C         -6.6833999314       -0.3080250821       -2.0275335718
 C         -5.9722360097        0.7841152617       -2.5187136219
 C         -4.7986268887        1.2052488530       -1.9220758946
 C         -4.3524827825        0.5062315075       -0.8075771684
 C         -0.8971906936        1.4045290488       -0.3854528002
 C         -0.4531052035        0.0925068124       -0.6032519934
 N         -1.1700071410       -1.0201881945       -0.7866145774
 N         -0.3583545057       -2.0228887431       -0.9021307657
 C          0.8946648858       -1.5721274633       -0.7812034624
 C          2.0627115657       -2.3514044658       -0.7558783385
 C          1.9992166573       -3.7094548293       -1.1524782411
 C          3.1381697831       -4.4533213324       -1.2905836016
 C          4.3946101617       -3.8896496523       -1.0298799143
 C          4.4827027872       -2.5809462624       -0.5902465865
 C          3.3431382306       -1.8119478204       -0.4169898116
 N          3.4476238611       -0.5197936340        0.1058227867
 C          2.7464825950       -0.0362018304        1.1901045881
 C          1.9046334213       -0.7101666523        2.0661590472
 C          1.3081409941        0.0222945278        3.0742310118
 C          1.5483512666        1.3869737610        3.2217496191
 C          2.4163028650        2.0542621440        2.3760254654
 C          3.0288560563        1.3403435613        1.3578956466
 C          3.9609885615        1.6913537588        0.3191580153
 C          4.5845517157        2.8738360229       -0.0469874863
 C          5.4264792102        2.8656614903       -1.1453925393
 C          5.6357799345        1.7026683825       -1.8822942227
 C          5.0219140949        0.5120811809       -1.5391174117
 C          4.1933026695        0.5098350565       -0.4258095756
 O          0.8940356555       -0.2035929153       -0.6250553684
 C          0.0275645394        2.4781017561       -0.4047888983
 H          0.3168293694        4.5812111585       -0.3925286206
 H         -2.1005213242        5.0982322721       -0.2630619640
 H         -3.7439627854        3.2626267011       -0.1123254428
 H         -1.4191088309        0.2386820376        2.0741345143
 H         -1.7747543022       -1.6249730342        3.6573108223
 H         -3.6896883606       -3.1287313137        3.4259248880
 H         -5.3490999810       -2.7979508820        1.6227494029
 H         -6.7796134024       -1.8759029329       -0.5623988091
 H         -7.5970834753       -0.6064226252       -2.5193018046
 H         -6.3437959290        1.3100877937       -3.3854194062
 H         -4.2407456645        2.0418939034       -2.3141786266
 H          1.0236902313       -4.1184927209       -1.3614653696
 H          3.0749765721       -5.4837127853       -1.6065713122
 H          5.2885237818       -4.4831611288       -1.1394399266
 H          5.4423856615       -2.1554068300       -0.3333892598
 H          1.7102303604       -1.7665227191        1.9532857537
 H          0.6422892880       -0.4743447559        3.7641994310
 H          1.0528355164        1.9272016240        4.0146985855
 H          2.6112352793        3.1084721743        2.5022009775
 H          4.4110733783        3.7811369483        0.5117705524
 H          5.9240508206        3.7761947394       -1.4441021502
 H          6.2878903374        1.7321170823       -2.7423582944
 H          5.1733937896       -0.3829084112       -2.1230797565
 H          1.0784961442        2.2433581347       -0.4748714882
  67
       -109.35686652
 C         -0.2769768495        3.6850484496       -0.5603039708
 C         -1.6300930853        4.0156473763       -0.4198341939
 C         -2.5697254140        3.0090313409       -0.2856031376
 C         -2.1974992331        1.6728592376       -0.2973237249
 N         -3.1649698296        0.6924208558       -0.0815270715
 C         -3.1254288912       -0.2937000028        0.8831313172
 C         -2.1688484722       -0.5355426902        1.8598672400
 C         -2.3893076013       -1.5868543125        2.7286484661
 C         -3.5391610332       -2.3680920176        2.6491413366
 C         -4.5160909455       -2.1036354926        1.7057168629
 C         -4.3133608079       -1.0577665483        0.8198912260
 C         -5.1082430344       -0.4894644074       -0.2375199607
 C         -6.3510244463       -0.7916030935       -0.7688245492
 C         -6.8306520696       -0.0191666362       -1.8137136659
 C         -6.0768294237        1.0272940180       -2.3386837067
 C         -4.8320526384        1.3447610229       -1.8274508212
 C         -4.3586691754        0.5917836161       -0.7603873419
 C         -0.8274301380        1.3230851518       -0.5016272268
 C         -0.3936970025        0.0009541943       -0.6885492351
 N         -1.0996094658       -1.1254096405       -0.8135007390
 N         -0.2788055620       -2.1252142510       -0.8922911409
 C          0.9710200011       -1.6571970140       -0.8026690579
 C          2.1550045035       -2.4091874831       -0.7274075023
 C          2.1462914457       -3.7795873961       -1.0821821014
 C          3.3146602350       -4.4840340265       -1.1782579804
 C          4.5458117055       -3.8664958100       -0.9179035256
 C          4.5795681209       -2.5441075184       -0.5115202494
 C          3.4094689886       -1.8165123538       -0.3744306962
 N          3.4476495149       -0.5165062490        0.1391719658
 C          2.7009398646       -0.0683483476        1.2084483866
 C          1.8938931772       -0.7887482218        2.0799961105
 C          1.2388562809       -0.0874722156        3.0741636656
 C          1.3837159859        1.2918226482        3.2082555998
 C          2.2131160199        2.0079633856        2.3633781627
 C          2.8865820845        1.3257492828        1.3626565241
 C          3.8025560432        1.7273339800        0.3276333199
 C          4.3386538213        2.9472020133       -0.0533773633
 C          5.1853683504        2.9850030605       -1.1475538463
 C          5.4865575582        1.8293658584       -1.8639882788
 C          4.9606606787        0.6015804990       -1.5058436904
 C          4.1248800297        0.5552693834       -0.3989727455
 O          0.9566106683       -0.2839525534       -0.7073111581
 C          0.1167953321        2.3761982745       -0.5918614666
 H          0.4593777314        4.4700594838       -0.6464433749
 H         -1.9364291144        5.0490911131       -0.3836676404
 H         -3.6084050462        3.2570029840       -0.1200686339
 H         -1.2783811608        0.0706405162        1.9340714047
 H         -1.6545059023       -1.8098355735        3.4878103387
 H         -3.6710635944       -3.1856809352        3.3420549231
 H         -5.4172332104       -2.6960489968        1.6598025044
 H         -6.9310077708       -1.6133586487       -0.3773380431
 H         -7.8002226316       -0.2349454905       -2.2370471896
 H         -6.4714678699        1.6010240113       -3.1638992394
 H         -4.2441328934        2.1453146605       -2.2495392491
 H          1.1905892531       -4.2313104035       -1.2950845828
 H          3.2951998374       -5.5253654261       -1.4626577928
 H          5.4623088337       -4.4294544414       -0.9977652268
 H          5.5182066230       -2.0768087400       -0.2491553602
 H          1.7709309230       -1.8565087062        1.9750622350
 H          0.6010422312       -0.6201012954        3.7637040307
 H          0.8424382262        1.8051449337        3.9890581539
 H          2.3319452407        3.0746632688        2.4777717042
 H          4.0931927042        3.8472912507        0.4898358882
 H          5.6141139060        3.9257602236       -1.4590692170
 H          6.1402833452        1.8944986405       -2.7208369388
 H          5.1824264562       -0.2889984645       -2.0739063819
 H          1.1569260347        2.1167274085       -0.7143340177
  67
       -109.35669600
 C         -0.6446787627        3.3321151462        2.0069454163
 C         -2.0233811184        3.5787232633        2.0412996391
 C         -2.9015051096        2.6584906367        1.4926316200
 C         -2.4344579934        1.4839484460        0.9283056094
 N         -3.3093827936        0.6277468451        0.2601019230
 C         -4.4518755354        0.0617333462        0.7712926480
 C         -4.9900625200        0.1632810567        2.0481325319
 C         -6.1511511657       -0.5373806334        2.3149386672
 C         -6.7619647457       -1.3261282804        1.3426811670
 C         -6.2199313253       -1.4457669022        0.0738283738
 C         -5.0582665820       -0.7511064324       -0.2182565595
 C         -4.2296763950       -0.6477254977       -1.3911619410
 C         -4.3089340547       -1.1800255231       -2.6680631346
 C         -3.3322898170       -0.8393051943       -3.5877146877
 C         -2.3021646247        0.0340031574       -3.2504341239
 C         -2.2051730274        0.5795659496       -1.9839553514
 C         -3.1622233128        0.2120113042       -1.0492296735
 C         -1.0373795524        1.1741949268        0.9849798466
 C         -0.5647706574       -0.0993903151        0.6444659022
 N         -1.2805988266       -1.1902342858        0.3491105285
 N         -0.4674374390       -2.1474936510        0.0396814948
 C          0.7852049664       -1.6855239542        0.1199534901
 C          1.9375376182       -2.4012330601       -0.2444028943
 C          1.8128711045       -3.7918622984       -0.4885358553
 C          2.9111551795       -4.5669490866       -0.7351304267
 C          4.1901127950       -3.9958183998       -0.7685722612
 C          4.3382922506       -2.6355478171       -0.5727972174
 C          3.2402771756       -1.8217119451       -0.3323518211
 N          3.4301282572       -0.4443926210       -0.1929066732
 C          4.3281155339        0.1511508426        0.6685596498
 C          5.1893973548       -0.4327686001        1.5876100021
 C          5.9928114621        0.4036573469        2.3404693425
 C          5.9351688565        1.7877689727        2.1975739458
 C          5.0540996338        2.3768176481        1.3080615981
 C          4.2417517686        1.5581212786        0.5388404173
 C          3.2396060083        1.8123862981       -0.4610387471
 C          2.7135119090        2.9711612322       -1.0113745749
 C          1.7577317950        2.8564992716       -2.0040881639
 C          1.3493985066        1.6066912037       -2.4655034784
 C          1.8537249424        0.4383132156       -1.9278972826
 C          2.7799313346        0.5469459264       -0.8978533930
 O          0.7838497303       -0.3780642174        0.5537580874
 C         -0.1572576843        2.1641541840        1.4882979782
 H          0.0363461814        4.0725253416        2.3993286596
 H         -2.3984743256        4.5009396300        2.4559821803
 H         -3.9598276553        2.8734510829        1.4519631863
 H         -4.5099613726        0.7603969858        2.8082181412
 H         -6.5922135645       -0.4764435209        3.2986334752
 H         -7.6681905839       -1.8591030180        1.5888587168
 H         -6.6880065730       -2.0715032029       -0.6707415524
 H         -5.1156702137       -1.8442359167       -2.9383657608
 H         -3.3706356480       -1.2492678701       -4.5859680591
 H         -1.5651038213        0.2909230189       -3.9971200193
 H         -1.4074343721        1.2603674227       -1.7266266780
 H          0.8197560468       -4.2099170936       -0.4511624428
 H          2.7972662336       -5.6267457888       -0.9060680811
 H          5.0534799349       -4.6084815866       -0.9748947531
 H          5.3153790492       -2.1800109457       -0.6481811791
 H          5.2286397874       -1.5038150426        1.7147584595
 H          6.6793095572       -0.0259564169        3.0545973582
 H          6.5840002560        2.4077898571        2.7979302975
 H          4.9989193716        3.4506388848        1.2119108498
 H          3.0465137509        3.9400723523       -0.6712179983
 H          1.3277766464        3.7462549247       -2.4393830412
 H          0.6248333266        1.5507295147       -3.2641083795
 H          1.5292386362       -0.5261793222       -2.2900588383
 H          0.9023269151        1.9593546793        1.4718119196
  67
       -109.35643542
 C         -0.5237537010        3.5706264738        1.1401875902
 C         -1.8692504808        3.7605168519        1.4757929755
 C         -2.7864154609        2.7507624295        1.2340395137
 C         -2.3886257395        1.5494405775        0.6725644676
 N         -3.3391698442        0.5720965653        0.3717441644
 C         -4.2372959220        0.0283489325        1.2570159366
 C         -4.3757397361        0.2559563690        2.6209294691
 C         -5.3567708164       -0.4464552559        3.2943358427
 C         -6.1771401779       -1.3592594134        2.6346188307
 C         -6.0310642666       -1.6041654313        1.2795571585
 C         -5.0561802020       -0.9102892465        0.5819840839
 C         -4.6237457713       -0.9095176020       -0.7910882374
 C         -5.0486816554       -1.5808156313       -1.9265383922
 C         -4.4195280296       -1.3093230301       -3.1289464647
 C         -3.3945049068       -0.3707479854       -3.2070901204
 C         -2.9561705449        0.3118119492       -2.0874412672
 C         -3.5618849014        0.0190432636       -0.8745557209
 C         -1.0059837760        1.3177403942        0.3947313498
 C         -0.5409682378        0.0493127476        0.0205576923
 N         -1.2143550421       -1.1045225244        0.0196406991
 N         -0.4016234551       -2.0626940959       -0.2865685062
 C          0.8168324722       -1.5431080122       -0.4733252150
 C          1.9821799014       -2.2746130762       -0.7505250943
 C          1.8522479729       -3.6389623610       -1.1132559897
 C          2.9301377888       -4.3623610863       -1.5399077828
 C          4.1978803633       -3.7697772974       -1.6194246928
 C          4.3635097923       -2.4532059731       -1.2319931749
 C          3.2926346096       -1.7015580998       -0.7711739241
 N          3.5156231701       -0.3964545815       -0.3276236964
 C          3.1501303857        0.1142823675        0.8995523497
 C          2.5435701596       -0.5225822608        1.9747083486
 C          2.2742079338        0.2312213907        3.1007080154
 C          2.6169506207        1.5798535320        3.1710216274
 C          3.2596873165        2.2088000864        2.1196418435
 C          3.5341561166        1.4745338145        0.9759670664
 C          4.1722618718        1.7869667248       -0.2749592023
 C          4.7382331756        2.9387884249       -0.7987599730
 C          5.2596030127        2.8965977552       -2.0799683315
 C          5.2047446719        1.7309772590       -2.8400752453
 C          4.6425717396        0.5706429908       -2.3402528249
 C          4.1408047510        0.6002539119       -1.0464054579
 O          0.7857994445       -0.1778337905       -0.2787501294
 C         -0.0979660366        2.3832846328        0.6106173049
 H          0.1842610597        4.3685548044        1.3070873770
 H         -2.1974399084        4.6987350922        1.8942137665
 H         -3.8349066668        2.9061731800        1.4448350123
 H         -3.7310222022        0.9512852507        3.1365255105
 H         -5.4881339340       -0.2887662598        4.3544558179
 H         -6.9330566616       -1.8889871701        3.1948967216
 H         -6.6590129715       -2.3241045969        0.7772250834
 H         -5.8546667452       -2.2968184957       -1.8725659257
 H         -4.7307094091       -1.8264942253       -4.0242768184
 H         -2.9327588564       -0.1706427400       -4.1626351269
 H         -2.1647025805        1.0430828467       -2.1534140373
 H          0.8659163198       -4.0707631401       -1.0542835404
 H          2.8095428645       -5.3979882613       -1.8198469201
 H          5.0473715365       -4.3461098909       -1.9501843033
 H          5.3464152015       -2.0037468117       -1.2397257869
 H          2.2800244255       -1.5687731996        1.9276017913
 H          1.7874498907       -0.2352653842        3.9440667162
 H          2.3824463243        2.1376794254        4.0651841933
 H          3.5403149537        3.2493427184        2.1839252419
 H          4.7670266629        3.8487443711       -0.2186638745
 H          5.7088068012        3.7823126413       -2.5037237519
 H          5.6055197999        1.7343805992       -3.8426675516
 H          4.5873597983       -0.3252644977       -2.9396873306
 H          0.9404180997        2.2249377233        0.3656515722
  67
       -109.35626388
 C         -0.5559977457        3.7732424137        0.3360633229
 C         -1.9036662329        4.0730979954        0.1027751311
 C         -2.8088640122        3.0473211099       -0.1153099274
 C         -2.3948047692        1.7263191568       -0.1198076247
 N         -3.3295603598        0.6982421972       -0.2471955977
 C         -3.5158795000       -0.3312874290        0.6560851299
 C         -2.8755440497       -0.5689319300        1.8632262385
 C         -3.2838430099       -1.6624235968        2.6045048219
 C         -4.3126886134       -2.4914977648        2.1671179476
 C         -4.9751501130       -2.2401112782        0.9782403294
 C         -4.5802235360       -1.1508128461        0.2180838083
 C         -5.0514644088       -0.5796225246       -1.0164364532
 C         -6.0451623907       -0.9293608314       -1.9155231850
 C         -6.2302966134       -0.1400699136       -3.0381183815
 C         -5.4298195898        0.9757029953       -3.2740987961
 C         -4.4308261164        1.3434582546       -2.3932032483
 C         -4.2530100759        0.5661628979       -1.2550420616
 C         -1.0074433623        1.4153086712        0.0329309103
 C         -0.5325705479        0.1161070340       -0.1915650012
 N         -1.1918398222       -0.9074091069       -0.7429129934
 N         -0.3765180017       -1.9004783397       -0.8849423395
 C          0.8277290022       -1.5312706325       -0.4333519436
 C          1.9839454528       -2.3259130119       -0.4576857258
 C          1.8577452202       -3.6869653016       -0.8355905398
 C          2.9125518213       -4.5499514230       -0.7352575012
 C          4.1521765035       -4.1052409873       -0.2567538285
 C          4.3149004699       -2.7760210990        0.0876674327
 C          3.2706617464       -1.8715451524       -0.0311572526
 N          3.4962555562       -0.5285045685        0.2822848447
 C          3.9858041728       -0.0597308906        1.4821620497
 C          4.3119715685       -0.7632676168        2.6333008867
 C          4.7562049840       -0.0405051015        3.7250764791
 C          4.8673541019        1.3470286204        3.6799055595
 C          4.5240525383        2.0549055484        2.5414141866
 C          4.0780775937        1.3520187543        1.4330163239
 C          3.6254011681        1.7418087359        0.1242376610
 C          3.4895342600        2.9635100510       -0.5175936229
 C          3.0159259704        2.9786437749       -1.8176467450
 C          2.7003489917        1.7953565581       -2.4822135702
 C          2.8338058098        0.5657911311       -1.8662123557
 C          3.2768689248        0.5468763649       -0.5501276497
 O          0.7864637594       -0.2271482872        0.0155154504
 C         -0.1135760982        2.4790485500        0.3071351006
 H          0.1405038655        4.5741430337        0.5344719282
 H         -2.2432185356        5.0965582790        0.1241306162
 H         -3.8596446255        3.2662515097       -0.2407789575
 H         -2.0825686882        0.0757065855        2.2112406490
 H         -2.7950758654       -1.8763877637        3.5434322734
 H         -4.6013571894       -3.3381338239        2.7719497123
 H         -5.7841516640       -2.8749401872        0.6502540928
 H         -6.6576558865       -1.8017298051       -1.7457804464
 H         -7.0016634028       -0.3952408214       -3.7492990349
 H         -5.5922299399        1.5625416095       -4.1657500833
 H         -3.8014903594        2.1988042022       -2.5859540061
 H          0.8919030705       -4.0101562049       -1.1896176885
 H          2.7941977135       -5.5834965924       -1.0236932894
 H          4.9840161879       -4.7878052974       -0.1840263577
 H          5.2781410958       -2.4132360588        0.4177488039
 H          4.2142539114       -1.8374383905        2.6762246153
 H          5.0194024897       -0.5625976247        4.6328274668
 H          5.2200384739        1.8764996956        4.5522880268
 H          4.5960234333        3.1317522481        2.5161577294
 H          3.7461321036        3.8811985868       -0.0098990824
 H          2.8925063274        3.9205570029       -2.3307429817
 H          2.3451591377        1.8402484145       -3.5008294703
 H          2.5942689869       -0.3494837313       -2.3867671114
 H          0.9265569657        2.2429657446        0.4669115806
  67
       -109.35612230
 C         -0.5851688125        3.5898103612        1.1368296937
 C         -1.9271876155        3.7516230164        1.4978473086
 C         -2.8319118739        2.7303366781        1.2530087487
 C         -2.4239209570        1.5503729883        0.6577032492
 N         -3.3623732033        0.5555638705        0.3656331518
 C         -4.1677195558       -0.0778168577        1.2783369583
 C         -4.2084563464        0.0643003879        2.6599629161
 C         -5.0989668953       -0.7258948866        3.3611526930
 C         -5.9269250080       -1.6378552978        2.7096364090
 C         -5.8816946888       -1.7918768517        1.3340172139
 C         -4.9976364336       -1.0105478112        0.6085023972
 C         -4.6722675705       -0.9077465243       -0.7901927356
 C         -5.1575089880       -1.5224051198       -1.9333137696
 C         -4.6277386134       -1.1531928913       -3.1579222788
 C         -3.6377101808       -0.1789798235       -3.2488183153
 C         -3.1394951110        0.4483343017       -2.1216461437
 C         -3.6525186314        0.0657257273       -0.8914332034
 C         -1.0444470473        1.3472541520        0.3480149059
 C         -0.5729200248        0.0909947544       -0.0578233777
 N         -1.2488580619       -1.0608344713       -0.0906578703
 N         -0.4315257080       -2.0176660368       -0.3867537188
 C          0.7933333071       -1.4999116433       -0.5338492379
 C          1.9630940725       -2.2433247935       -0.7568495867
 C          1.8283826439       -3.6095253273       -1.1122836674
 C          2.9134178348       -4.3600160902       -1.4672495052
 C          4.1957018002       -3.7943788001       -1.4764711181
 C          4.3631176826       -2.4749791838       -1.1010144214
 C          3.2824527168       -1.6934246066       -0.7173737786
 N          3.5120914964       -0.3803748514       -0.3006005255
 C          3.1062749902        0.1825880701        0.8903041467
 C          2.4248840358       -0.3957692133        1.9538033144
 C          2.1284451669        0.4043863305        3.0404002127
 C          2.5170759874        1.7416241766        3.0853739469
 C          3.2353961631        2.3111215981        2.0491460634
 C          3.5382158572        1.5297234622        0.9445270018
 C          4.2534484998        1.7768997226       -0.2788590635
 C          4.8973297523        2.8866299475       -0.8038148899
 C          5.4865650866        2.7814426941       -2.0515479582
 C          5.4216454284        1.5957835882       -2.7791841791
 C          4.7826181003        0.4767926911       -2.2776228255
 C          4.2138670801        0.5682303554       -1.0146869959
 O          0.7598924558       -0.1355609293       -0.3312475287
 C         -0.1486859369        2.4202866969        0.5759252458
 H          0.1131681772        4.3951011732        1.3095290178
 H         -2.2631392969        4.6751327757        1.9423592071
 H         -3.8776369402        2.8583433684        1.4944024912
 H         -3.5571564308        0.7614599265        3.1649600504
 H         -5.1523034081       -0.6390527672        4.4361710356
 H         -6.6095351479       -2.2386376077        3.2919999319
 H         -6.5164533532       -2.5098571160        0.8374339493
 H         -5.9342904963       -2.2692309611       -1.8689168555
 H         -4.9893513301       -1.6234333009       -4.0602322148
 H         -3.2516915595        0.0931890855       -4.2199817811
 H         -2.3745225966        1.2066608982       -2.1940880138
 H          0.8320878400       -4.0219339644       -1.1030875309
 H          2.7876348281       -5.3966491835       -1.7410264529
 H          5.0521280957       -4.3923373391       -1.7449888250
 H          5.3534853284       -2.0442160009       -1.0578357397
 H          2.1265132627       -1.4333436112        1.9276537800
 H          1.5836273052       -0.0158774178        3.8724884899
 H          2.2597276121        2.3370821500        3.9484675351
 H          3.5529386051        3.3420328874        2.0949562279
 H          4.9347615356        3.8125319175       -0.2499981112
 H          5.9979213726        3.6330152794       -2.4748641151
 H          5.8772003455        1.5497724697       -3.7570060772
 H          4.7208229733       -0.4343593285       -2.8528770408
 H          0.8879466561        2.2839813129        0.3107932400
  67
       -109.35443039
 C         -0.2711494402        3.7896058267        0.0579837916
 C         -1.5326675643        4.0417406363        0.5985337371
 C         -2.4708397626        3.0197586915        0.6530627898
 C         -2.1735021469        1.7625404095        0.1672310943
 N         -3.1308582920        0.7351940785        0.2506256835
 C         -3.4599381657        0.0651713113        1.3993814085
 C         -2.9711176049        0.2492788738        2.6863743209
 C         -3.4530462153       -0.5830988833        3.6785441700
 C         -4.3960191995       -1.5703121972        3.3997058219
 C         -4.8807370348       -1.7604767216        2.1156829822
 C         -4.4114151200       -0.9414547645        1.1021973692
 C         -4.6546342212       -0.8570159916       -0.3147103407
 C         -5.4756320697       -1.5455527362       -1.1923490903
 C         -5.4618259964       -1.1870193625       -2.5304571701
 C         -4.6484352989       -0.1561902782       -2.9932537665
 C         -3.8218254226        0.5468090593       -2.1365398440
 C         -3.8265917639        0.1836773510       -0.7978133652
 C         -0.8807986667        1.4817193878       -0.3529216858
 C         -0.5028045533        0.1758324956       -0.7130459338
 N         -1.2384942656       -0.9357832824       -0.7051610532
 N         -0.4715033816       -1.9521457915       -0.9464424253
 C          0.7820840089       -1.5085672099       -1.0761912413
 C          1.9448829014       -2.2984874055       -1.0981246506
 C          1.8693102794       -3.6412152641       -1.5385486373
 C          3.0013749277       -4.3882587471       -1.7076276926
 C          4.2636271187       -3.8435590221       -1.4269148879
 C          4.3627406810       -2.5573701843       -0.9305815547
 C          3.2297788576       -1.7834471828       -0.7260968604
 N          3.3400967952       -0.5309503293       -0.1211956168
 C          2.5713852419       -0.0811368943        0.9345951496
 C          1.6466394640       -0.7696437543        1.7115940157
 C          0.9602492237       -0.0591158390        2.6775905854
 C          1.2090724675        1.2938372456        2.8963018307
 C          2.1758233129        1.9682179814        2.1709625683
 C          2.8687625500        1.2786736160        1.1891087368
 C          3.8911360015        1.6521065585        0.2481549652
 C          4.5716801289        2.8329105303       -0.0022999358
 C          5.4947071879        2.8596372535       -1.0335225651
 C          5.7242210640        1.7344814949       -1.8207259045
 C          5.0537479222        0.5463454861       -1.5927061939
 C          4.1485627456        0.5048732625       -0.5413737112
 O          0.8147118244       -0.1325295613       -0.9682111537
 C          0.0554011846        2.5403874680       -0.4013762833
 H          0.4566909600        4.5858164995        0.0068884843
 H         -1.7830131489        5.0248244627        0.9646977409
 H         -3.4526580984        3.2005779646        1.0672215836
 H         -2.2339712014        1.0108409791        2.8924880531
 H         -3.0906871132       -0.4701457786        4.6897720446
 H         -4.7485078969       -2.2021223542        4.2014371121
 H         -5.6029849052       -2.5352501123        1.9079381961
 H         -6.1117827238       -2.3437179306       -0.8407784772
 H         -6.0928252514       -1.7145847028       -3.2301821720
 H         -4.6635259162        0.0975580605       -4.0428228449
 H         -3.1879621317        1.3454480237       -2.4912186331
 H          0.8895653840       -4.0366549959       -1.7547224856
 H          2.9304155776       -5.4060852106       -2.0603207953
 H          5.1519255645       -4.4412512032       -1.5567614485
 H          5.3245497166       -2.1602736552       -0.6386852420
 H          1.4492764987       -1.8189774112        1.5506698095
 H          0.2124459388       -0.5652788450        3.2699576267
 H          0.6440187600        1.8205987334        3.6508436160
 H          2.3802225197        3.0114230114        2.3578904475
 H          4.3800487186        3.7126616722        0.5931620410
 H          6.0387359152        3.7689642037       -1.2405835237
 H          6.4370405642        1.7913716669       -2.6296398905
 H          5.2210284560       -0.3149937808       -2.2208853498
 H          1.0329847940        2.3394945990       -0.8113148746
