  67
       -109.35742132
 C         -0.4020120163        3.7758983977       -0.3658386521
 C         -1.7687937781        4.0725841737       -0.2965821775
 C         -2.6917969407        3.0428424669       -0.2245345931
 C         -2.2831997818        1.7193930795       -0.2311381090
 N         -3.2203139415        0.7017455012       -0.0533540925
 C         -3.1767760979       -0.2635387638        0.9323104953
 C         -2.2657099908       -0.4233209395        1.9671331816
 C         -2.4732546915       -1.4670744556        2.8489259525
 C         -3.5654824935       -2.3208553336        2.7203027925
 C         -4.4945958524       -2.1441216104        1.7098147125
 C         -4.3049389287       -1.1063962949        0.8115382609
 C         -5.0600089598       -0.6164957694       -0.3125214985
 C         -6.2325059042       -1.0206050364       -0.9285806684
 C         -6.6833999314       -0.3080250821       -2.0275335718
 C         -5.9722360097        0.7841152617       -2.5187136219
 C         -4.7986268887        1.2052488530       -1.9220758946
 C         -4.3524827825        0.5062315075       -0.8075771684
 C         -0.8971906936        1.4045290488       -0.3854528002
 C         -0.4531052035        0.0925068124       -0.6032519934
 N         -1.1700071410       -1.0201881945       -0.7866145774
 N         -0.3583545057       -2.0228887431       -0.9021307657
 C          0.8946648858       -1.5721274633       -0.7812034624
 C          2.0627115657       -2.3514044658       -0.7558783385
 C          1.9992166573       -3.7094548293       -1.1524782411
 C          3.1381697831       -4.4533213324       -1.2905836016
 C          4.3946101617       -3.8896496523       -1.0298799143
 C          4.4827027872       -2.5809462624       -0.5902465865
 C          3.3431382306       -1.8119478204       -0.4169898116
 N          3.4476238611       -0.5197936340        0.1058227867
 C          2.7464825950       -0.0362018304        1.1901045881
 C          1.9046334213       -0.7101666523        2.0661590472
 C          1.3081409941        0.0222945278        3.0742310118
 C          1.5483512666        1.3869737610        3.2217496191
 C          2.4163028650        2.0542621440        2.3760254654
 C          3.0288560563        1.3403435613        1.3578956466
 C          3.9609885615        1.6913537588        0.3191580153
 C          4.5845517157        2.8738360229       -0.0469874863
 C          5.4264792102        2.8656614903       -1.1453925393
 C          5.6357799345        1.7026683825       -1.8822942227
 C          5.0219140949        0.5120811809       -1.5391174117
 C          4.1933026695        0.5098350565       -0.4258095756
 O          0.8940356555       -0.2035929153       -0.6250553684
 C          0.0275645394        2.4781017561       -0.4047888983
 H          0.3168293694        4.5812111585       -0.3925286206
 H         -2.1005213242        5.0982322721       -0.2630619640
 H         -3.7439627854        3.2626267011       -0.1123254428
 H         -1.4191088309        0.2386820376        2.0741345143
 H         -1.7747543022       -1.6249730342        3.6573108223
 H         -3.6896883606       -3.1287313137        3.4259248880
 H         -5.3490999810       -2.7979508820        1.6227494029
 H         -6.7796134024       -1.8759029329       -0.5623988091
 H         -7.5970834753       -0.6064226252       -2.5193018046
 H         -6.3437959290        1.3100877937       -3.3854194062
 H         -4.2407456645        2.0418939034       -2.3141786266
 H          1.0236902313       -4.1184927209       -1.3614653696
 H          3.0749765721       -5.4837127853       -1.6065713122
 H          5.2885237818       -4.4831611288       -1.1394399266
 H          5.4423856615       -2.1554068300       -0.3333892598
 H          1.7102303604       -1.7665227191        1.9532857537
 H          0.6422892880       -0.4743447559        3.7641994310
 H          1.0528355164        1.9272016240        4.0146985855
 H          2.6112352793        3.1084721743        2.5022009775
 H          4.4110733783        3.7811369483        0.5117705524
 H          5.9240508206        3.7761947394       -1.4441021502
 H          6.2878903374        1.7321170823       -2.7423582944
 H          5.1733937896       -0.3829084112       -2.1230797565
 H          1.0784961442        2.2433581347       -0.4748714882
