83
 energy: -111.613419972535 gnorm: 0.000162000721 xtb: 6.7.1 (edcfbbe)
C           -5.41547200922140        3.05336652405031       -3.01080680044214
C           -5.56503622406412        2.12746074575545       -1.81017435549221
C           -5.36104019757324        0.66675792032042       -2.20607998301166
C           -5.51295206523558       -0.30666624191186       -1.02287008576222
C           -5.29282235825854       -1.74901820468218       -1.51368172583712
C           -5.42074239213614       -2.78632692579934       -0.40031756762694
C           -5.19748129918819       -4.19751772528402       -0.92935626356898
C           -6.85649266703560       -0.14985292658620       -0.35057151677326
C           -8.11517229642130       -0.33978201572145       -0.87871376476023
C           -9.22127337164499       -0.13395335343093       -0.06445608104456
C           -9.06737650591041        0.25624142212895        1.25689550388417
C           -7.80590825354093        0.44981804532213        1.79611301192653
C           -6.70055110562538        0.24501341952996        0.98692609924140
C           -5.28119715030235        0.36496415169273        1.26847789855276
C           -4.61196995669484        0.71956861181585        2.42998433629268
C           -3.23084742578193        0.74736179215551        2.42241417432367
C           -2.51515491054114        0.42332363817771        1.26518474117651
C           -1.10676511646695        0.44836276923448        1.27993362323931
C            0.10188300501876        0.46539578559490        1.29379890229608
C            1.51018448320470        0.47919516368291        1.30631825218079
C            2.19480734210351        0.90042086294077        2.45199284211914
C            3.57501085116312        0.91883086769067        2.48416690725670
C            4.27585642911647        0.51066752974158        1.35846655919408
C            3.59412388639568        0.08621359937237        0.20527096107410
C            2.22087627463677        0.06804916076066        0.17064800069027
C            4.56949098906346       -0.30683136406124       -0.87891717741072
C            4.40199926848090        0.57187608925403       -2.13218862840879
C            4.53841125782985        2.06505558082071       -1.84165156931588
C            4.36061829111310        2.89318602482818       -3.10798282131748
C            4.41261412318388       -1.78910936345160       -1.26550500961135
C            4.56313264496021       -2.73902484393897       -0.07906315022290
C            4.39875463525724       -4.19128103955988       -0.50913090784409
C            5.89448341454368       -0.05260644419146       -0.20103821248034
C            7.16217195379482       -0.22989281499148       -0.70066838703332
C            8.25297933039461        0.07579028362050        0.12277610167515
C            9.56426866871278       -0.09887404192213       -0.37032629266794
N           10.62748582196699       -0.24284270622712       -0.77658045676934
C            8.06099151036316        0.55037218299108        1.42301270266849
C            6.78397338510554        0.72688106612477        1.92041715545238
C            5.70095763278116        0.42505429028059        1.10739261936442
C           -3.19388378418333        0.06880155664703        0.09147230960485
C           -4.56737389986879        0.04281438227682        0.10213708649117
H           -4.42213992295244        2.95954530782448       -3.44483681790130
H           -6.14821992962621        2.80777992552861       -3.77670274878285
H           -5.56344788422983        4.08915310416596       -2.71497905287455
H           -6.56023061150263        2.25029375320733       -1.37715946444581
H           -4.83495591968519        2.40238776250760       -1.04561322100347
H           -4.36318033948599        0.54688937197242       -2.63463724740047
H           -6.08843926817960        0.39906249081246       -2.97595463862633
H           -6.02374552449752       -1.96947387114971       -2.29507620812269
H           -4.29768429742493       -1.82110217782499       -1.95897084973256
H           -4.68966759618862       -2.57169571835648        0.38238567168095
H           -6.41476373499494       -2.71742888040168        0.04711151351726
H           -5.29330710028248       -4.92555935562534       -0.12745828516713
H           -4.20275462065220       -4.29140913480133       -1.36024721726154
H           -5.92795668595661       -4.43746283210036       -1.69919353703156
H           -8.24702990529354       -0.64379368909863       -1.90713954142310
H          -10.21375954635478       -0.27965620711842       -0.46549253974850
H           -9.94202208692867        0.41084027146652        1.87196057759951
H           -7.68914358545404        0.75382415887360        2.82582845784397
H           -5.15818117646442        0.96911634139789        3.32756312328757
H           -2.68520838437029        1.01865596051325        3.31463648077683
H            1.62456758961911        1.21252180277266        3.31475006192912
H            4.09678515636745        1.24528434415497        3.37149959994053
H            1.68031258701512       -0.25505209664586       -0.70711510946426
H            3.41760963530815        0.37975181357149       -2.56497415258046
H            5.15254023742249        0.27936633289654       -2.87012220725206
H            5.52292854743135        2.26496056991593       -1.41244141799275
H            3.78900561240184        2.36241292572467       -1.10456424313063
H            4.46251991256298        3.95302417004367       -2.88795578576311
H            5.10970901332206        2.62366974552735       -3.84950367336826
H            3.37583846324411        2.72575229149422       -3.53909835534732
H            3.42712398207612       -1.93092877667612       -1.71486963771723
H            5.16154769324724       -2.03685565918368       -2.02124061557470
H            5.54802375644235       -2.60411424532092        0.37395931709760
H            3.81404977181274       -2.49698889066279        0.67831401371805
H            3.41416383792494       -4.35231022964485       -0.94305946358685
H            5.14819670074903       -4.45747454175602       -1.25150015480028
H            4.51020785065317       -4.85647115973267        0.34359419206071
H            7.33365434098345       -0.59544279330635       -1.70270491588778
H            8.92341600581659        0.77681532299348        2.03286822994323
H            6.63592565885182        1.09323777010195        2.92504894880161
H           -2.62910637949291       -0.17775753014160       -0.79609814938768
