  83
       -111.53331323
 C         -5.3024197438        3.8425545583       -1.9136730532
 C         -5.4944368407        2.5931290382       -1.0634854564
 C         -5.3139491414        1.3231057429       -1.8921193917
 C         -5.4940294496        0.0350494146       -1.0677464605
 C         -5.3074217338       -1.1907507739       -1.9805418873
 C         -5.4716008646       -2.5166459144       -1.2408910054
 C         -5.2919081499       -3.7017773780       -2.1811358245
 C         -6.8358563536        0.0069539664       -0.3757498977
 C         -8.0941916050        0.0212660257       -0.9295145659
 C         -9.2011200429       -0.0114483786       -0.0866465228
 C         -9.0437889767       -0.0580810595        1.2939900230
 C         -7.7863167416       -0.0725598347        1.8643960888
 C         -6.6713603659       -0.0396283162        1.0269957368
 C         -5.2735477790       -0.0433825870        1.3271057860
 C         -4.5940623694       -0.0774654121        2.5544784326
 C         -3.2283821307       -0.0690076595        2.5622964768
 C         -2.4841601812       -0.0290560935        1.3459059991
 C         -1.1151649166       -0.0216507042        1.3701996152
 C          0.1183430479       -0.0166934688        1.3823045100
 C          1.4835521628       -0.0143362321        1.3914037008
 C          2.2022225054       -0.0287400878        2.6297994963
 C          3.5622915871       -0.0287596335        2.6573848451
 C          4.2794667938       -0.0163275588        1.4408299518
 C          3.5713282201       -0.0026993969        0.1969606975
 C          2.2170390992        0.0002656472        0.1613426926
 C          4.5506728481        0.0042059064       -0.9545889839
 C          4.3898266438        1.2654002059       -1.8230909034
 C          4.5325472233        2.5610562839       -1.0274717468
 C          4.3647681143        3.7826098210       -1.9221129722
 C          4.3886204581       -1.2500664240       -1.8335579261
 C          4.5374023556       -2.5521952872       -1.0496390338
 C          4.3534406188       -3.7658633367       -1.9516050728
 C          5.8751338099        0.0005034784       -0.2290494189
 C          7.1364661928        0.0097905173       -0.7520771420
 C          8.2371182252        0.0049369541        0.1297395183
 C          9.5410038790        0.0172419872       -0.3862987245
 N         10.6099574638        0.0271898279       -0.8127163711
 C          8.0366901252       -0.0111546694        1.5241991001
 C          6.7710936680       -0.0206368341        2.0509477963
 C          5.6681147536       -0.0136728552        1.1797226001
 C         -3.1839968731        0.0043038685        0.1028803763
 C         -4.5435494039       -0.0016079262        0.1069633784
 H         -4.3031822866        3.8623604854       -2.3436453443
 H         -6.0253299582        3.8668864741       -2.7263554655
 H         -5.4338759483        4.7380848443       -1.3112741330
 H         -6.4948303604        2.6008803529       -0.6248367004
 H         -4.7731404635        2.5974489090       -0.2431200852
 H         -4.3145128455        1.3209078816       -2.3331680261
 H         -6.0388162464        1.3217436569       -2.7092723630
 H         -6.0379466412       -1.1392086281       -2.7910225730
 H         -4.3112133693       -1.1487610034       -2.4267572064
 H         -4.7367550367       -2.5769693805       -0.4348879340
 H         -6.4645859706       -2.5585021986       -0.7875979657
 H         -5.4113123672       -4.6383682603       -1.6420502830
 H         -4.3003896845       -3.6881322148       -2.6287986134
 H         -6.0288933036       -3.6704313063       -2.9808432101
 H         -8.2305893296        0.0570438299       -2.0006218988
 H        -10.1946191837       -0.0008067868       -0.5097236898
 H         -9.9195052106       -0.0830129452        1.9261155180
 H         -7.6666155412       -0.1084140232        2.9367983168
 H         -5.1496917737       -0.1091701788        3.4799936640
 H         -2.6795044737       -0.0934282466        3.4922361884
 H          1.6283517534       -0.0388365118        3.5449801835
 H          4.0965990021       -0.0383778211        3.5957745525
 H          1.6659845400        0.0107550369       -0.7676079987
 H          3.4060808668        1.2420246264       -2.2976770809
 H          5.1421857520        1.2457238541       -2.6147488766
 H          5.5163470258        2.5902076901       -0.5535630931
 H          3.7818123819        2.5850295387       -0.2341196502
 H          4.4654975245        4.6972401311       -1.3427993862
 H          5.1194684172        3.7884448257       -2.7056255865
 H          3.3832949463        3.7803681544       -2.3917887930
 H          3.4023445686       -1.2240557055       -2.3027860731
 H          5.1370331752       -1.2220343717       -2.6287304313
 H          5.5270747111       -2.5885956434       -0.5886839408
 H          3.7968085286       -2.5804032816       -0.2469644325
 H          3.3634253781       -3.7600004650       -2.4029621591
 H          5.0936214079       -3.7650096108       -2.7488440251
 H          4.4648272308       -4.6850612842       -1.3817201480
 H          7.3130331684        0.0206793887       -1.8179463864
 H          8.9022941247       -0.0150349482        2.1709313119
 H          6.6199947733       -0.0319913921        3.1197952262
 H         -2.6127220752        0.0360850448       -0.8132434103
