83
 energy: -111.601055250732 gnorm: 0.000051132110 xtb: 6.7.1 (edcfbbe)
C           -6.52605870203587       -2.07230944555614       -3.23593559636908
C           -6.63506194661416       -1.61603179808256       -1.78501361142942
C           -5.53894903565614       -0.60723824172383       -1.45419807079709
C           -5.46642470430391       -0.12310717317402        0.00917784086505
C           -5.32536496508483       -1.25829179996937        1.04316983572974
C           -4.15104525775115       -2.21493782852914        0.85478645584931
C           -4.21510372695871       -3.35152547986064        1.86944393187750
C           -6.66675499012498        0.71772057908990        0.40146402209877
C           -7.98243119750794        0.34050707704425        0.57645634556310
C           -8.91427480322673        1.29586402044553        0.96067223421923
C           -8.53669365170990        2.61018128660306        1.18537584990364
C           -7.21393163671066        2.99393159325044        1.04565486601652
C           -6.28385134277467        2.04272640726736        0.65898092601027
C           -4.85077689276074        2.15577095778394        0.46597968856332
C           -4.01322210942013        3.25472448005131        0.58162543277858
C           -2.66672474172966        3.09960509775824        0.31748858249500
C           -2.16123239990599        1.85720938785214       -0.07286520598267
C           -0.78477010738588        1.71546724041143       -0.35294914665682
C            0.39356068879355        1.59379024949469       -0.59118136166340
C            1.77101797796479        1.45196526511615       -0.86490708310312
C            2.34020187237922        2.13158331385437       -1.94666309438468
C            3.68593924697750        2.00658413876003       -2.22936754271583
C            4.46799396785256        1.19975394204241       -1.41542200677672
C            3.90312784017415        0.51964108290853       -0.32503677959072
C            2.56054039608374        0.63207488664842       -0.05010650010508
C            4.94507438820784       -0.32010290525075        0.38122398227901
C            4.57348631670509       -1.79859576696488        0.10341163282855
C            5.55151375564627       -2.84823526266093        0.62324357186552
C            5.01558744834962       -4.25349823162366        0.37213825458906
C            5.02105249972090       -0.04901118720322        1.89300454475995
C            4.96897910070860        1.42644343474950        2.29756617235684
C            6.20413015591230        2.22700063453216        1.90311101684800
C            6.19861170931744        0.06128827336911       -0.37090911138310
C            7.50334250633930       -0.30039833432994       -0.13043915085633
C            8.50033594113032        0.16802386092512       -0.99539659633222
C            9.84408472567246       -0.19533087463784       -0.76005404008679
N           10.93376193438688       -0.49598732676842       -0.56414067269955
C            8.18607854290487        0.98846030671285       -2.08128588750083
C            6.87761217643035        1.36978280634325       -2.30712018584331
C            5.88826186663147        0.91166410874518       -1.44929124864084
C           -3.01052441845616        0.75068335086286       -0.19434046693950
C           -4.34773438945183        0.89812557400654        0.09473804163573
H           -6.61394605509364       -1.22326054901736       -3.91046677694083
H           -5.56691154456244       -2.55346332610405       -3.41695360420037
H           -7.31518094323280       -2.78199515992339       -3.47375466822686
H           -6.55547726164619       -2.48669031202185       -1.13241608115042
H           -7.61334382985343       -1.15998358771835       -1.63142736438646
H           -5.67703345709679        0.27633691062425       -2.08446834443418
H           -4.57159143473063       -1.04054667894117       -1.71704048070483
H           -5.24341508491660       -0.79422501673459        2.03050864427373
H           -6.25150494988442       -1.83664487141921        1.03709181081575
H           -4.16622404280852       -2.63707741849705       -0.15107516367942
H           -3.21155937821589       -1.67766293700242        0.98701440893380
H           -5.13096091380606       -3.92608081992651        1.74605924168608
H           -4.19312871810131       -2.95933365887609        2.88399869211631
H           -3.36983653409334       -4.02436518650051        1.74345960121386
H           -8.29870169752763       -0.68139680285508        0.43072212774185
H           -9.94729114450841        1.00777066116571        1.09124840711917
H           -9.27880121074005        3.33645481709883        1.48346349589533
H           -6.91264137774942        4.01256742824546        1.24037144698894
H           -4.40632451988735        4.21889463279989        0.86798666857015
H           -1.99078941687965        3.93813632454265        0.40245749353533
H            1.70863578011116        2.75626618335731       -2.56129961728105
H            4.11922361656520        2.53079843405419       -3.06820272647534
H            2.10721352786568        0.11498915774511        0.78316347038859
H            4.47061349994745       -1.92317338407430       -0.97858436339496
H            3.59189910305920       -1.98217717007892        0.54756503213484
H            5.71105533942007       -2.71529233301675        1.69428994242017
H            6.51182429963468       -2.74129055500895        0.11727229281067
H            4.85603989382826       -4.41715640063133       -0.69146509578437
H            5.72039730298781       -4.99929062449365        0.73168492605800
H            4.06821096263308       -4.40080009035112        0.88653030727294
H            4.18050669049202       -0.55993141258763        2.36918813663395
H            5.94103110500423       -0.48590661039602        2.28508576905993
H            4.08223239396281        1.89509279723796        1.86601504032409
H            4.86353813085030        1.46426569006847        3.38508347073020
H            6.16078077752917        3.21925271080012        2.34706036148100
H            7.10965213420907        1.73560126894272        2.25334051474247
H            6.27140867872049        2.34334983405289        0.82521611035939
H            7.78171334950993       -0.91722755580676        0.71087557548855
H            8.97811034704422        1.32934906569753       -2.73186641792635
H            6.63320192457079        2.01931665319231       -3.13410304580806
H           -2.59598938136013       -0.18944480796723       -0.52571810764494
