83
 energy: -111.536055346544 gnorm: 0.000131409827 xtb: 6.7.1 (edcfbbe)
C           -5.32952252731173        3.84531213355599       -1.91817856246747
C           -5.50470366541917        2.59647006504785       -1.06338717546683
C           -5.33233185995214        1.32618541555223       -1.89330684226014
C           -5.50590050369911        0.03830024859799       -1.06714514670293
C           -5.31925958551052       -1.18747130817816       -1.97979793105657
C           -5.48165760356258       -2.51346257064774       -1.23995416670507
C           -5.28741221295594       -3.69860674198899       -2.17733195394156
C           -6.84503163578508        0.00889067127094       -0.36970877731603
C           -8.10568643752312        0.01851690213920       -0.91904255488112
C           -9.20918936919664       -0.01322409358376       -0.07206634321870
C           -9.04660973030400       -0.05374907849704        1.30770749923844
C           -7.78636337354923       -0.06358045144485        1.87323791536367
C           -6.67565994560152       -0.03217964062861        1.03164848597514
C           -5.27507958919907       -0.03397357196865        1.32672965387154
C           -4.59103938440392       -0.06548000578854        2.55090469599273
C           -3.22504067812504       -0.06009617059131        2.55312726914896
C           -2.48581023769605       -0.02534257763619        1.33354408605122
C           -1.11704161280111       -0.02393236909828        1.35277067807328
C            0.11738601950225       -0.02306734101824        1.36622821189775
C            1.48110853752180       -0.02273450165318        1.37787682532872
C            2.19652606988930       -0.03652099117997        2.62010662460095
C            3.55557742572159       -0.03422509243075        2.65266605108835
C            4.27770898551739       -0.02012753356220        1.43818411318859
C            3.57390487176821       -0.00917262749850        0.19072230386665
C            2.22051583371390       -0.00894631526581        0.14961765377294
C            4.55857788403915        0.00064465662146       -0.95643121659153
C            4.39813148977926        1.26244834001609       -1.82415948593777
C            4.54122378594520        2.55740399101541       -1.02743432588338
C            4.36777095641440        3.77954735511953       -1.92019617820094
C            4.40523727973602       -1.25327693300830       -1.83728362333377
C            4.55329495695381       -2.55571550698651       -1.05371732104133
C            4.39238474263858       -3.76947442314707       -1.96016422750295
C            5.88001916068202       -0.00078018913712       -0.22502810755017
C            7.14357961836247        0.00780159748336       -0.74294073755717
C            8.24035039452635        0.00323659259694        0.14339173270679
C            9.54635715229290        0.01210766224729       -0.36855366827610
N           10.61547288721356        0.01937691554228       -0.79382605342633
C            8.03451806506870       -0.01028599975421        1.53653293154340
C            6.76643633532535       -0.01904746854175        2.05808614929615
C            5.66748261185989       -0.01423571043833        1.18240943422378
C           -3.19092651208967        0.00763305593978        0.09361334144349
C           -4.55060640652766        0.00439456586860        0.10368575061090
H           -4.33664543732802        3.86840106688736       -2.36247845045770
H           -6.06410116761972        3.86570400699774       -2.72047279947845
H           -5.45582081831747        4.74130079365285       -1.31534214600992
H           -6.49854452565194        2.60161220560212       -0.61004363250645
H           -4.77135264182549        2.60428059682777       -0.25380468156856
H           -4.33707994097841        1.32341995927540       -2.34372547943473
H           -6.06491377584251        1.32496680050976       -2.70358148651302
H           -6.05000141892237       -1.13688023352378       -2.79014651179597
H           -4.32316398401500       -1.14471550523388       -2.42632114883581
H           -4.75267877412470       -2.56858930120245       -0.42826012877599
H           -6.47782072637357       -2.56055997653772       -0.79420152380975
H           -5.40729577022847       -4.63530587725381       -1.63847522514002
H           -4.29165634241758       -3.68033397351603       -2.61538911127638
H           -6.01678911359134       -3.67157576976592       -2.98416432944587
H           -8.24601364930575        0.04999158092634       -1.98979335016224
H          -10.20433267203177       -0.00625842328146       -0.49152213209256
H           -9.91965497647502       -0.07783178315567        1.94356263808016
H           -7.66260996291189       -0.09513574586516        2.94537000982004
H           -5.14270688978374       -0.09351969252198        3.47892712333156
H           -2.67248586163210       -0.08369948686750        3.48091362245871
H            1.61876969082031       -0.04736815495236        3.53281832251169
H            4.08679719295439       -0.04317587355453        3.59282668347942
H            1.67275342847528       -0.00007669111582       -0.78129416349859
H            3.41424858905329        1.23933707071656       -2.29843270777307
H            5.15030533346738        1.24316755148435       -2.61604456131961
H            5.52673737292982        2.58797353256788       -0.55717761281636
H            3.79335490585696        2.57904293347652       -0.23126704516241
H            4.47309930341127        4.69357438211401       -1.34085344443746
H            5.11685852125119        3.78572915965517       -2.70910840123876
H            3.38297218335634        3.77831536172200       -2.38286118103042
H            3.42199673791921       -1.22996724029420       -2.31287966382796
H            5.15869937762398       -1.22227874078817       -2.62758402207671
H            5.53679179866853       -2.58482350095227       -0.57914645338716
H            3.80188688615169       -2.59092321609046       -0.26137591993701
H            3.41045644085325       -3.76918463891496       -2.42887799829926
H            5.14635177356128       -3.76320153812230       -2.74441506898519
H            4.49951605813092       -4.68880471738544       -1.38960275986615
H            7.32455591065584        0.01798663287680       -1.80806596365429
H            8.89729204967152       -0.01358196783043        2.18704105005670
H            6.61099603810530       -0.02934274235069        3.12632901339842
H           -2.62367922616406        0.03553288602585       -0.82514500041153
