45
 energy: -72.478919067969 gnorm: 0.000126577474 xtb: 6.7.1 (edcfbbe)
O            2.98180073524217        2.30775261644352        1.34673754620968
C            2.30177948820838        1.47719340091631        0.77705284010267
C            2.10904129039474        0.10745703291945        1.29751755007209
C            3.03174722721050       -0.39595057070049        2.21253134588303
C            2.90793662798311       -1.68285867691836        2.69436100745170
C            1.84958278076630       -2.47080136206458        2.26844753559939
C            0.92037617440198       -1.97189112543304        1.37188930557372
C            1.04213811933306       -0.68351787977498        0.86605389126680
C           -0.00703893590687       -0.09977314529648       -0.05936708840639
C           -0.64594908983360       -1.22649662564765       -0.85654846207381
C            0.15379513955286       -1.92076854712921       -1.76064957875798
C           -0.36322371272274       -2.96664357398505       -2.50035280722336
C           -1.68841465662903       -3.33978955240831       -2.34312733072611
C           -2.48559451227357       -2.66332364672679       -1.43803125508929
C           -1.96809598867361       -1.61363175825939       -0.69596270457810
C           -1.04066844340618        0.66914468687051        0.76726586225839
C           -1.09527525301814        0.57085748753623        2.15220545958212
C           -2.03752594702879        1.27651212748664        2.88021564492495
C           -2.93877381991486        2.08822935211629        2.21753039251484
Br          -4.24117002879886        3.06010664807676        3.21174589129774
C           -2.90963467666830        2.19969149538667        0.83827797094733
C           -1.96188559362596        1.49203082387911        0.12461966215972
C            0.62456784805139        0.91707487139020       -0.99394359611699
C            0.12465117998229        1.14050893891647       -2.27100559566708
C            0.65096982709357        2.13792598401692       -3.07373228270890
C            1.67699297423158        2.94561025878160       -2.60868168212491
C            2.18500317633561        2.73312109782791       -1.34395543196773
C            1.67158913358504        1.71947420516620       -0.53697828562740
H            3.83962626844589        0.24763556036247        2.52732795784109
H            3.62598971435974       -2.07178460242932        3.40030986691067
H            1.74085591388581       -3.47847062054099        2.64146277323155
H            0.09031585814569       -2.59106196575994        1.06518647289163
H            1.18871079173752       -1.63273668290020       -1.88106560729897
H            0.26895173249703       -3.49296318007776       -3.20001881575116
H           -2.09486221751955       -4.15620366220204       -2.92106808594130
H           -3.51752819499310       -2.95206806870902       -1.30306823098726
H           -2.60210004250764       -1.10147789120988        0.01259924655541
H           -0.40287521238116       -0.06208612305370        2.68483944252383
H           -2.06707622166253        1.19250823964262        3.95565975755763
H           -3.61827370085836        2.83307244047868        0.32716052983485
H           -1.94626768099441        1.58428566706646       -0.95015137804569
H           -0.67454611434829        0.52083829407333       -2.65206834456160
H            0.25292314998998        2.28655168578005       -4.06674683267307
H            2.07721973070102        3.73031488389778       -3.23252353766595
H            2.99021416162640        3.33640146219766       -0.95195201919254
