45
 energy: -72.392661265923 gnorm: 0.000052240147 xtb: 6.7.1 (edcfbbe)
O            1.74988262409864       -3.82241841578345       -0.08229906409130
C            1.77498078090959       -2.56476613054265       -0.06727804991257
C            1.77904594833913       -1.77352943020150       -1.27998317232547
C            1.98315487166425       -2.44265749472558       -2.50116342255783
C            2.13535183129305       -1.72025505583297       -3.66025399761437
C            2.07566589098245       -0.33317272366345       -3.63568962615901
C            1.82659612509147        0.32589000950732       -2.44190637793700
C            1.65007793315088       -0.37824194904860       -1.26064167487781
C            1.18859991630961        0.32697452669771        0.00348621276967
C            1.66949171654968        1.76451928995168        0.01663185354912
C            3.03938680253873        1.99804060520209       -0.09760287316898
C            3.53831332708582        3.28537043241042       -0.07943004530627
C            2.67621537261188        4.36245834521113        0.05719065691514
C            1.31608557639345        4.13919877997701        0.17969990655019
C            0.81387664352857        2.84855433151276        0.16146091360699
C           -0.34002904145833        0.23819675140239        0.03381923633239
C           -1.07388791294703        0.50328459844932       -1.11899414218167
C           -2.45364595035037        0.43360407436607       -1.12075080431558
C           -3.11431878388823        0.09199071656699        0.04654958668711
Br          -5.01700023776625       -0.00837108954368        0.05510194756101
C           -2.40999416521908       -0.17258439234521        1.20645641271857
C           -1.02848447907110       -0.09687943274071        1.19372147488611
C            1.75767987946686       -0.41418219682663        1.19763790094858
C            2.02030158517511        0.25542779539708        2.38321888446574
C            2.39221307095514       -0.43447623033536        3.52637324792492
C            2.48782021112892       -1.81978946890685        3.49729578445416
C            2.23706014616857       -2.50948778258928        2.33500224000563
C            1.90546783577247       -1.80815575873589        1.16094185801500
H            2.04900905298703       -3.51916367830509       -2.49178758358725
H            2.31984279090885       -2.24052229615809       -4.58858315368312
H            2.20565716522319        0.23727271323068       -4.54255345668499
H            1.74984948027726        1.40404235472425       -2.43184851371329
H            3.71074153713555        1.15768488334278       -0.20221363980086
H            4.60144901954253        3.45058156778262       -0.17109424168915
H            3.06432850097786        5.36986074811410        0.07092576293017
H            0.63853495384510        4.97261420764120        0.29220279034669
H           -0.24929185190867        2.69006162461235        0.26448872433423
H           -0.56497693585107        0.76753628566929       -2.03310519129143
H           -3.01017262797288        0.64141186888510       -2.02164106420323
H           -2.93192326328950       -0.43523738488510        2.11369456961870
H           -0.49088052695555       -0.29951675729622        2.10699319431837
H            1.89853573452544        1.32837686098728        2.41937949492789
H            2.58754075035084        0.10930835572526        4.43778329836339
H            2.77240231159734       -2.36437418685889        4.38555324082089
H            2.31882732782549       -3.58379973786823        2.28597515786048
