45
 energy: -72.392668004159 gnorm: 0.000040634092 xtb: 6.7.1 (edcfbbe)
O            1.71258876659857       -3.82241365154801        0.13133146327332
C            1.74052847962703       -2.56499589917612        0.10306576167423
C            1.88683803401822       -1.82256313074528       -1.13199794283227
C            2.22709692908302       -2.53839195115684       -2.29483040415673
C            2.48704311609812       -1.86325116442575       -3.46365132593819
C            2.39235783774554       -0.47839909386199       -3.51061709478136
C            2.01340502332417        0.22581647701250       -2.37859165743903
C            1.74206358840553       -0.42878112273056       -1.18669646299621
C            1.16787429303888        0.32949986210613       -0.00607002707784
C            1.66179052947140        1.76236468271859       -0.03355208398807
C            3.03053166473344        1.98632031319849        0.10935882208791
C            3.54183299018922        3.26849097347067        0.07528591972726
C            2.69368487592445        4.34981643795503       -0.10724692863440
C            1.33516848947103        4.13577081031407       -0.26032354861842
C            0.82060270373458        2.85036945414024       -0.22606973213906
C           -0.36077773319531        0.25124711626328       -0.04349749807469
C           -1.04587443047484       -0.16001623289614       -1.18043948264135
C           -2.42796248363564       -0.22766931377907       -1.19450832323289
C           -3.13575965995513        0.12195975492342       -0.05964408209831
Br          -5.03906573627853        0.03521448644198       -0.07121072419672
C           -2.47814927492456        0.53903746505531        1.08487114619316
C           -1.09816226925566        0.59903730327447        1.08509954377273
C            1.60910304339289       -0.36517547160441        1.27152301416137
C            1.77452027175498        0.35035304351078        2.44742272208066
C            2.00321213920318       -0.29743946817844        3.65138424610591
C            2.05428082612139       -1.68444243855773        3.69142869851122
C            1.91505255335209       -2.41805197364388        2.53785376851703
C            1.73098750620078       -1.76069345831840        1.30704020310188
H            2.30711308001980       -3.61213150197236       -2.23221315999498
H            2.77758250134226       -2.41896110370357       -4.34304342617696
H            2.59410760043746        0.05394191969927       -4.42734551423150
H            1.89276184792155        1.29824798248834       -2.42886141039349
H            3.69128407123341        1.14267395540541        0.24906003675014
H            4.60386041979936        3.42627419962114        0.18997436598435
H            3.09146397488621        5.35318475695393       -0.13361088140973
H            0.66866684432333        4.97225041200948       -0.41000392954851
H           -0.24076540018643        2.69892178034297       -0.35507490137500
H           -0.50610787279565       -0.42885733840381       -2.07509027320144
H           -2.94745264210064       -0.54965854908955       -2.08384135886504
H           -3.03751415527731        0.81220262292828        1.96634245668432
H           -0.59116117787735        0.92121497262799        1.98144749365309
H            1.70806132229590        1.42899577169818        2.42500127266649
H            2.12482711399937        0.28188947667902        4.55376677318719
H            2.22244739301907       -2.19590138228923        4.62772210985969
H            1.97584161128556       -3.49490532873448        2.54039787439990
