  90
       -133.80666657
 C          9.1768027035       -2.2054571937       -1.8774514227
 C          8.8057038973       -1.4499839368       -0.5870337979
 C          9.9823495741       -1.4822215469        0.4065932268
 C          8.5064512480       -0.0092206200       -0.9441415413
 C          9.4887300335        0.7688288007       -1.5408404510
 C          9.2588178255        2.0802781678       -1.9140575842
 C          8.0075226940        2.6379344833       -1.7054031223
 C          7.0141496458        1.8906227195       -1.1138579016
 C          7.2504809035        0.5694057693       -0.7089455795
 N          6.2386570371       -0.1483190279       -0.1071073382
 C          4.9907556439        0.4868155275        0.1383016537
 C          4.8681371764        1.4176731535        1.1680745914
 C          3.6516416977        2.0078301150        1.4238464814
 C          2.5182946511        1.6879299980        0.6612082574
 C          1.2293820169        2.2893507662        0.9462802537
 C          1.1386813401        3.6049475192        1.3542172818
 N         -0.0106378731        4.2404657811        1.5491037749
 C         -1.1582781013        3.5985339374        1.3594732076
 C         -1.2383151457        2.2825307298        0.9528344806
 C         -2.5233726986        1.6737552949        0.6646529315
 C         -2.6753380964        0.7951473412       -0.4171076265
 C         -3.8861253678        0.1982550928       -0.6804538455
 C         -4.9884272245        0.4618608161        0.1319797634
 N         -6.2313782852       -0.1740593854       -0.1226926013
 C         -7.2924777603        0.5825105530       -0.5780900306
 C         -7.1077847066        1.9466515202       -0.8442724507
 C         -8.1519990796        2.7325669976       -1.2770057207
 C         -9.4046730700        2.1720245311       -1.4677109927
 C         -9.5831578381        0.8196160402       -1.2428184745
 C         -8.5489780965        0.0027599887       -0.8068658997
 C         -8.7978962629       -1.4778693363       -0.6121967581
 C         -9.2441966100       -2.0805648332       -1.9578029388
 C         -9.9017851433       -1.6603539109        0.4467529541
 C         -7.5550786598       -2.2028831863       -0.1403583133
 C         -7.6075637121       -3.5712410580        0.0878288282
 C         -6.5148969198       -4.2792130918        0.5525337629
 C         -5.3336968149       -3.6064082835        0.8212954645
 C         -5.2518718868       -2.2494199355        0.6041290993
 C         -6.3467988971       -1.5330459694        0.1006418524
 C         -4.8582192791        1.3474648183        1.2011898540
 C         -3.6464589095        1.9453196104        1.4600000871
 C         -0.0034892808        1.5596743526        0.7930594899
 C         -0.0100824572        0.1849476197        0.6701981365
 N         -0.0231336279       -0.9736586082        0.5749089754
 C          2.6651871451        0.7646174821       -0.3839695860
 C          3.8793320951        0.1711739882       -0.6408613307
 C          6.4011835057       -1.4660365603        0.2703133525
 C          5.3479164765       -2.1390823939        0.9050656983
 C          5.4786617515       -3.4554233065        1.2862343151
 C          6.6675712098       -4.1276310066        1.0514618080
 C          7.7168608829       -3.4606613602        0.4465380970
 C          7.6145502739       -2.1342680767        0.0504749770
 H          9.4081284535       -3.2451353632       -1.6642308446
 H          8.3430739081       -2.1753719083       -2.5765284097
 H         10.0418430365       -1.7548503171       -2.3556467846
 H         10.2342098154       -2.5040743506        0.6758661310
 H          9.7157683458       -0.9433684107        1.3142249501
 H         10.8650180381       -1.0163822770       -0.0229316635
 H         10.4636120135        0.3437634404       -1.7249782355
 H         10.0460749902        2.6575214713       -2.3733984428
 H          7.8040879045        3.6539134286       -2.0072383787
 H          6.0368448641        2.3209971126       -0.9644357783
 H          5.7322544019        1.6560421051        1.7715612530
 H          3.5602700905        2.7015224762        2.2457230943
 H          2.0263563286        4.2112769189        1.4723171255
 H         -2.0503075294        4.1986058571        1.4757624037
 H         -1.8322411225        0.5929496337       -1.0577370396
 H         -3.9936604400       -0.4761786071       -1.5173024861
 H         -6.1306010597        2.3830950768       -0.7146660871
 H         -7.9863681412        3.7813928551       -1.4700635776
 H        -10.2318351589        2.7789057246       -1.8014617815
 H        -10.5593197034        0.3927060395       -1.4155891295
 H        -10.1377542522       -1.5853153360       -2.3278543200
 H         -9.4605820037       -3.1403045205       -1.8544268815
 H         -8.4539324957       -1.9612589506       -2.6972542820
 H         -9.5812284648       -1.2290490140        1.3936915072
 H        -10.1166102121       -2.7135801644        0.6054163725
 H        -10.8199497442       -1.1680333542        0.1382248950
 H         -8.5268544126       -4.1051696907       -0.0984483384
 H         -6.5887816662       -5.3432815794        0.7148666183
 H         -4.4750185102       -4.1363170954        1.2036672659
 H         -4.3337653934       -1.7320085385        0.8278772679
 H         -5.7130096216        1.5434720422        1.8325449882
 H         -3.5473137536        2.6038908480        2.3094914634
 H          1.8147621037        0.5217957631       -0.9999520624
 H          3.9812722063       -0.5429195902       -1.4448795821
 H          4.4244383847       -1.6185050100        1.0981923293
 H          4.6524637100       -3.9541863021        1.7689353324
 H          6.7801041018       -5.1599831954        1.3440918921
 H          8.6406409881       -3.9941327829        0.2820381930
