  80
       -123.13706238
 C          7.8772815316       -2.2111087073        2.0936992702
 C          6.5742122342       -2.2592565998        2.5612205601
 C          5.5691729366       -1.5763299517        1.9047468191
 C          5.8553651847       -0.8354705421        0.7580805687
 N          4.8385459172       -0.1458824159        0.0886516427
 C          5.0936742739        1.1058174374       -0.4802591850
 C          4.4778379600        1.4808179672       -1.6745550983
 C          4.7314093922        2.7195354991       -2.2301988041
 C          5.6061737792        3.6000731424       -1.6152091224
 C          6.2226655677        3.2320626536       -0.4305871094
 C          5.9677389307        1.9998075127        0.1386232420
 C          3.5625740999       -0.7151712970       -0.0126409696
 C          3.4306436548       -2.0917459425       -0.2257294471
 C          2.1905875202       -2.6938286214       -0.3330409812
 C          1.0629748719       -1.9007434486       -0.2382445560
 C          1.1793026811       -0.4905888083       -0.0228602117
 C          2.4276441985        0.0884055910        0.0949376779
 C         -0.1663010834        0.0582848308        0.0305276593
 C         -0.8706661221        1.2401916188        0.2001794062
 C         -2.2774438234        1.1907547963        0.1390421569
 N         -2.9821505724        2.3995067846        0.2938161058
 C         -2.5049926614        3.5577257365       -0.3262392469
 C         -2.6137780955        4.7986354672        0.3018878212
 C         -2.1329068644        5.9364445605       -0.3157817779
 C         -1.5291929456        5.8592417640       -1.5601675588
 C         -1.4138571115        4.6291310056       -2.1864189594
 C         -1.8993892998        3.4869074509       -1.5811387094
 C         -4.1482382016        2.4336561980        1.0620151337
 C         -4.2717362735        1.6321388970        2.1975841735
 C         -5.4304795310        1.6600834960        2.9481179226
 C         -6.4807795251        2.4890405109        2.5893291235
 C         -6.3634224195        3.2888065639        1.4644227609
 C         -5.2126147232        3.2609570301        0.7015383437
 C         -3.0231121463        0.0175026225       -0.0703330600
 C         -2.3481055008       -1.1919471408       -0.2159971105
 C         -2.5266160171       -2.6152245026       -0.4377540158
 C         -3.6745396891       -3.4244020977       -0.5877808467
 C         -4.9874172342       -2.9183116034       -0.5311008951
 C         -6.0648631749       -3.7473412851       -0.6832584824
 C         -5.8795122090       -5.1198330309       -0.8992783039
 C         -4.6164819861       -5.6412107297       -0.9566073876
 C         -3.4830682404       -4.8180633858       -0.8026765878
 C         -2.1766448278       -5.3583644672       -0.8575934995
 C         -1.0647223133       -4.5775890625       -0.7064288201
 C         -1.2389541716       -3.2068796088       -0.4961202409
 N         -0.2849164050       -2.2219227206       -0.3177875110
 C         -0.9664533787       -1.0589072763       -0.1571290864
 C          7.1679713311       -0.7957556413        0.2879857434
 C          8.1673239356       -1.4757546241        0.9560161862
 H          8.6608326937       -2.7428312645        2.6117477282
 H          6.3392565796       -2.8259699859        3.4502968792
 H          4.5554953657       -1.6070625060        2.2768506227
 H          3.8037379801        0.7930003784       -2.1637871924
 H          4.2485412723        2.9953774550       -3.1562098227
 H          5.8054591731        4.5653730856       -2.0552284794
 H          6.9016892098        3.9138064560        0.0602774817
 H          6.4413533881        1.7216974391        1.0686842659
 H          4.3233491912       -2.6931082113       -0.3109785569
 H          2.1141358755       -3.7570841590       -0.4991118785
 H          2.5263503484        1.1497026049        0.2662330878
 H         -0.3825180101        2.1872110956        0.3720933709
 H         -3.0722948849        4.8611490924        1.2779096016
 H         -2.2213214161        6.8900392631        0.1838096732
 H         -1.1508262773        6.7503756156       -2.0373897033
 H         -0.9487382365        4.5586633745       -3.1587430126
 H         -1.8146310624        2.5303077264       -2.0756512545
 H         -3.4519827778        0.9905020365        2.4860947204
 H         -5.5101463214        1.0352076547        3.8255620566
 H         -7.3834375693        2.5110061882        3.1807568854
 H         -7.1793530850        3.9334819395        1.1717638587
 H         -5.1307680672        3.8763950173       -0.1824689916
 H         -4.0984730156        0.0972169256       -0.1123008860
 H         -5.1321416969       -1.8631114622       -0.3625401574
 H         -7.0675529489       -3.3478997940       -0.6372563920
 H         -6.7405853582       -5.7610319357       -1.0182943203
 H         -4.4679742390       -6.6993001670       -1.1208556078
 H         -2.0705771703       -6.4207766481       -1.0231059138
 H         -0.0729933344       -5.0011733002       -0.7480479218
 H          7.3951017991       -0.2308680529       -0.6043267602
 H          9.1793111485       -1.4375084207        0.5802915348
