  73
       -114.21997375
 C        -10.1772157378       -1.1981665531        0.0415728064
 C         -9.5552322679       -0.8614340218       -1.1491599122
 C         -8.1957427270       -0.6076561712       -1.1758464220
 C         -7.4409248389       -0.6926679321       -0.0101258060
 C         -5.9873897645       -0.4233524450       -0.0320461465
 C         -5.0815140852       -1.4756732951        0.1615669059
 C         -5.5205268711       -2.8150277079        0.3332398651
 C         -4.6354590208       -3.8263723749        0.5459006838
 C         -3.2534649709       -3.5586900145        0.6091187080
 C         -2.7903338438       -2.2919577829        0.4289775703
 C         -3.6765886615       -1.2118972083        0.1758731849
 C         -3.2112295804        0.0937906594       -0.0367562403
 C         -1.7598199727        0.3664577311       -0.0176277019
 C         -1.1994476566        1.1282312482        1.0041582712
 C          0.1597156396        1.3683731040        1.0418699096
 C          0.9853864054        0.8594037434        0.0436628673
 N          2.3662970741        1.0996107759        0.0803736297
 C          2.9669096404        2.3337583935        0.2253093350
 C          2.3924077036        3.5933933177        0.3171296986
 C          3.2381552693        4.6797975533        0.4312830683
 C          4.6236138789        4.5269970358        0.4470857241
 C          5.2031637870        3.2799372445        0.3332503015
 C          4.3717256977        2.1730968750        0.2165201716
 C          4.6147313003        0.7701151194        0.0636578561
 C          5.7527720178       -0.0225932429       -0.0028365861
 S          7.4118063360        0.5161638776        0.0648066794
 C          7.9765729355       -1.1340163280       -0.0964840992
 C          9.3005998213       -1.5358600554       -0.1317010314
 C          9.5758253247       -2.8832896150       -0.2658711614
 C          8.5438703660       -3.8116816309       -0.3622373841
 C          7.2250907779       -3.4084325565       -0.3264271002
 C          6.9208107740       -2.0563005249       -0.1927776007
 C          5.6339276345       -1.4141901693       -0.1368831329
 C          4.3667877062       -2.0062640691       -0.1880034061
 C          3.2235289771       -1.2423051935       -0.1273673167
 C          3.3510519406        0.1417114746       -0.0190369392
 C          0.4309666476        0.1090743383       -0.9891394643
 C         -0.9273422204       -0.1390644222       -1.0121733821
 C         -4.1161060541        1.1417845406       -0.2573690538
 C         -3.6771633870        2.4662897199       -0.5202775343
 C         -4.5648805291        3.4799081619       -0.7098518293
 C         -5.9507298105        3.2332097528       -0.6428269426
 C         -6.4131296613        1.9736757478       -0.4167117068
 C         -5.5219234327        0.8827166954       -0.2385990358
 C         -8.0728891338       -1.0344532933        1.1815376344
 C         -9.4332693149       -1.2830999907        1.2065462480
 H        -11.2390035529       -1.3940203044        0.0613715151
 H        -10.1314661424       -0.7955224399       -2.0605019775
 H         -7.7073333952       -0.3472714103       -2.1041625854
 H         -6.5799308703       -3.0188046617        0.2881636380
 H         -4.9847705421       -4.8404134696        0.6728596794
 H         -2.5653632846       -4.3693143291        0.7991880792
 H         -1.7310061385       -2.0891453103        0.4795273898
 H         -1.8376044850        1.5188757044        1.7834177795
 H          0.5919624831        1.9373834293        1.8512733861
 H          1.3209749238        3.7230749965        0.2896130826
 H          2.8160086159        5.6708848397        0.5072294175
 H          5.2489899986        5.4018780633        0.5413466950
 H          6.2755258883        3.1572895926        0.3298772549
 H         10.0936576143       -0.8080583585       -0.0565363213
 H         10.6017417765       -3.2175038321       -0.2968991922
 H          8.7802949137       -4.8600554579       -0.4669837399
 H          6.4280546675       -4.1326851737       -0.4018988387
 H          4.2920243700       -3.0795054316       -0.2722778556
 H          2.2493419960       -1.7055651437       -0.1512652844
 H          1.0680700820       -0.2671447515       -1.7756227159
 H         -1.3554531314       -0.7200751321       -1.8160858271
 H         -2.6154904701        2.6563380881       -0.5733511161
 H         -4.2147182048        4.4817760680       -0.9106138294
 H         -6.6413125504        4.0525712942       -0.7776147235
 H         -7.4749297259        1.7837170288       -0.3684292847
 H         -7.4898542007       -1.0978871328        2.0893848062
 H         -9.9137849386       -1.5446902730        2.1380007588
