  58
       -100.48620109
 O          5.5862743693       -1.5423018332       -1.6708300212
 S          5.1334286106       -1.5435139653       -0.3103997863
 O          5.4656842867       -2.6981013058        0.4887251931
 C          5.7907907063       -0.0955112197        0.5248063822
 C          6.7909212807       -0.2377904916        1.4714865501
 C          7.2888249170        0.8836330131        2.1141078551
 C          6.7748287152        2.1404096406        1.8221290073
 C          5.7604679010        2.2762718394        0.8876556421
 C          5.2787987383        1.1551176019        0.2361593703
 S          3.9429109030        1.3168875755       -0.9526508268
 O          4.4463581572        1.1532886279       -2.2834175688
 O          3.2558983174        2.5547980767       -0.6679229787
 C          2.8487906046       -0.0270448693       -0.5127606548
 C          1.5101726600        0.2109726686       -0.4317734413
 C          0.5956089550       -0.8123211381       -0.0351517662
 C         -0.7960046359       -0.5846497689        0.0129131039
 C         -1.4044447275        0.5452832846       -0.6332046046
 C         -2.7442329348        0.7600595614       -0.6031001990
 C         -3.6156724317       -0.1356087615        0.0725564836
 N         -4.9787113901        0.0717016933        0.0916211262
 C         -5.8498856093       -1.0186099501        0.1119348186
 C         -5.5459881807       -2.1778760808       -0.6101278181
 C         -6.4019892735       -3.2586590476       -0.5730513781
 C         -7.5675152964       -3.2065783679        0.1783396185
 C         -7.8740507678       -2.0580679404        0.8948854222
 C         -7.0270838279       -0.9699400044        0.8663940447
 C         -5.4947672443        1.3675376592        0.0873104191
 C         -4.8374346846        2.3927969777        0.7762522732
 C         -5.3455136579        3.6749928351        0.7551639924
 C         -6.5086998566        3.9588985481        0.0537733023
 C         -7.1652635923        2.9448425981       -0.6296851245
 C         -6.6677168870        1.6586801740       -0.6178944848
 C         -3.0378123213       -1.2560334692        0.7253104508
 C         -1.6970730201       -1.4674877755        0.7004921773
 C          1.1833691262       -2.0762006120        0.3179372692
 C          2.5288703183       -2.2925155656        0.2363475120
 C          3.3905274043       -1.2811307444       -0.2075346306
 H          7.1568812233       -1.2302705198        1.6828609227
 H          8.0771185294        0.7792457708        2.8442724474
 H          7.1620239295        3.0127924358        2.3260961542
 H          5.3244590170        3.2339936746        0.6504300690
 H          1.1772701063        1.2161319865       -0.6315891342
 H         -0.7847539186        1.2150266905       -1.2052011236
 H         -3.1740698604        1.5917685094       -1.1422597035
 H         -4.6494335857       -2.2061980820       -1.2110824452
 H         -6.1638054430       -4.1458326983       -1.1397140640
 H         -8.2325188697       -4.0554080632        0.2060225014
 H         -8.7752182339       -2.0158979759        1.4874651230
 H         -7.2542331311       -0.0828942646        1.4389647868
 H         -3.9453385675        2.1640567193        1.3397598270
 H         -4.8364163149        4.4579265030        1.2962192113
 H         -6.9015143218        4.9634584652        0.0397542676
 H         -8.0659698174        3.1621073243       -1.1834741252
 H         -7.1654160683        0.8735952082       -1.1675829592
 H         -3.6825667430       -1.9159709598        1.2879242133
 H         -1.2955559556       -2.2988529795        1.2554199578
 H          0.5443203424       -2.8898506571        0.6188235770
 H          2.9683446481       -3.2428215080        0.4960762427
  58
       -100.48611873
 O          5.4571393925       -2.5622430968        1.0366047639
 S          5.1051678720       -1.1679958631        1.1541378401
 O          5.4967929028       -0.5005579374        2.3615469018
 C          5.8294525725       -0.3026682985       -0.2438608550
 C          6.8947131551       -0.8656767926       -0.9255813563
 C          7.4565953204       -0.1889036712       -1.9957565717
 C          6.9429731569        1.0390957124       -2.3910589421
 C          5.8648019812        1.5907262856       -1.7170301844
 C          5.3181034052        0.9183788072       -0.6387975473
 S          3.9153602035        1.6225034777        0.2341225646
 O          3.2599560490        2.5408713622       -0.6670031288
 O          4.3443001523        2.1526012528        1.4937335258
 C          2.8305379317        0.2214023920        0.4697295774
 C          1.4992426108        0.3723154335        0.2252361984
 C          0.5803963341       -0.7100123604        0.3958594689
 C         -0.8090317280       -0.5450292524        0.2165482608
 C         -1.3768766683        0.6653736532       -0.3133791407
 C         -2.7155076160        0.8381300887       -0.4531115965
 C         -3.6300419923       -0.1879796857       -0.0963009276
 N         -4.9911380151       -0.0091470912       -0.2320650216
 C         -5.8079906119       -1.0890423844       -0.5668622309
 C         -5.3504201291       -2.0690844119       -1.4546202188
 C         -6.1557350031       -3.1424478542       -1.7735718614
 C         -7.4218568227       -3.2607752483       -1.2180351661
 C         -7.8799197469       -2.2915217797       -0.3364823921
 C         -7.0851084105       -1.2130068667       -0.0089524917
 C         -5.5537349475        1.2509470250       -0.0282610641
 C         -5.0332184704        2.1049824815        0.9503347603
 C         -5.5847285346        3.3548639739        1.1404507685
 C         -6.6567966465        3.7751599350        0.3662163374
 C         -7.1764975106        2.9316399855       -0.6058043353
 C         -6.6337930727        1.6797993618       -0.8074316726
 C         -3.0960691071       -1.4015330174        0.4096992304
 C         -1.7577859953       -1.5683864633        0.5646329627
 C          1.1693366790       -1.9697647369        0.7669594541
 C          2.5107737895       -2.1074008793        0.9787288465
 C          3.3706594914       -1.0073710914        0.8646421660
 H          7.2596635263       -1.8268703017       -0.5990842355
 H          8.2954361594       -0.6180409937       -2.5226362731
 H          7.3814286009        1.5649080497       -3.2255916936
 H          5.4297936022        2.5342664638       -2.0071157765
 H          1.1734135500        1.3494865636       -0.0892588824
 H         -0.7210640227        1.4526458282       -0.6437659398
 H         -3.1042200407        1.7478959730       -0.8875865059
 H         -4.3733286872       -1.9619447635       -1.9014640578
 H         -5.7981641309       -3.8887583023       -2.4665264037
 H         -8.0478503181       -4.1023427960       -1.4702247957
 H         -8.8608692457       -2.3832541947        0.1045017159
 H         -7.4323452960       -0.4694727993        0.6930216466
 H         -4.2139595339        1.7661754195        1.5665286921
 H         -5.1821968479        4.0032371651        1.9035179484
 H         -7.0850257989        4.7533649984        0.5191413496
 H         -8.0054470108        3.2570298218       -1.2158298407
 H         -7.0239434381        1.0311021483       -1.5777144958
 H         -3.7807707349       -2.1765790228        0.7232590735
 H         -1.4055965360       -2.4852006637        1.0060437160
 H          0.5419245046       -2.8399254785        0.8649062283
 H          2.9487008426       -3.0568215303        1.2443697686
  58
       -100.48607785
 O          5.4471974602       -2.5158314231        1.1845544863
 S          5.1205785258       -1.1105547293        1.2089389979
 O          5.5680325654       -0.3585343915        2.3449681733
 C          5.7940537236       -0.3678370601       -0.2817803306
 C          6.8031704413       -1.0105416330       -0.9782389733
 C          7.3170167804       -0.4316638394       -2.1269252566
 C          6.8114003546        0.7782001146       -2.5841279127
 C          5.7885244592        1.4090283264       -1.8938226063
 C          5.2896059655        0.8344046095       -0.7387384091
 S          3.9431715955        1.6289518609        0.1458983684
 O          3.2684845662        2.5021497796       -0.7859584933
 O          4.4336422424        2.2301208466        1.3498293985
 C          2.8439439943        0.2667362277        0.5104875714
 C          1.5094538795        0.4198638819        0.2868238160
 C          0.5815456538       -0.6392107491        0.5378251318
 C         -0.8078952060       -0.4756184299        0.3569811432
 C         -1.3798833994        0.7427385483       -0.1509567345
 C         -2.7167641829        0.9026164998       -0.3206986871
 C         -3.6257400768       -0.1455965089       -0.0199185943
 N         -4.9835219417        0.0064803147       -0.2109966020
 C         -5.7548813906       -1.0871219516       -0.6057284941
 C         -5.2309718213       -2.0320323937       -1.4949403036
 C         -5.9888175467       -3.1209107147       -1.8715534989
 C         -7.2727560756       -3.2896952665       -1.3727580414
 C         -7.7970577525       -2.3547952527       -0.4909682550
 C         -7.0499536918       -1.2608685287       -0.1062292066
 C         -5.5867285872        1.2478605426       -0.0108215279
 C         -5.1307445751        2.0981052505        1.0025531384
 C         -5.7237039179        3.3295259911        1.1892823423
 C         -6.7731528104        3.7350703084        0.3773357526
 C         -7.2282482486        2.8951788519       -0.6296330774
 C         -6.6441734096        1.6616705315       -0.8281906565
 C         -3.0896265399       -1.3593050555        0.4827014614
 C         -1.7541994351       -1.5121106701        0.6714573870
 C          1.1654724314       -1.8800067271        0.9767149809
 C          2.5092851876       -2.0210060971        1.1693510151
 C          3.3792634489       -0.9417970736        0.9687359406
 H          7.1620896845       -1.9554434116       -0.6014961584
 H          8.1111102705       -0.9233821722       -2.6682199713
 H          7.2120535868        1.2271564442       -3.4802395257
 H          5.3591629490        2.3397293244       -2.2301962404
 H          1.1922709055        1.3762782356       -0.0931015341
 H         -0.7293147410        1.5527554563       -0.4320835111
 H         -3.1055911414        1.8206714378       -0.7371955275
 H         -4.2395795172       -1.8859937792       -1.8966872564
 H         -5.5789726471       -3.8406658292       -2.5635060603
 H         -7.8605993796       -4.1444891338       -1.6684664164
 H         -8.7920533449       -2.4863331929       -0.0933811358
 H         -7.4487945973       -0.5442936193        0.5964994959
 H         -4.3290516145        1.7710436344        1.6473243971
 H         -5.3707933372        3.9753271805        1.9788118852
 H         -7.2340324011        4.6986650633        0.5276278537
 H         -8.0387316905        3.2093456084       -1.2695726665
 H         -6.9826100773        1.0168944049       -1.6256768662
 H         -3.7724803782       -2.1487546967        0.7626212064
 H         -1.4041309574       -2.4354509298        1.1002798839
 H          0.5316212653       -2.7321040693        1.1554757785
 H          2.9414878832       -2.9568769448        1.4873457361
  58
       -100.48601949
 O          5.5418706751       -1.8095764354       -1.4355711450
 S          5.1223317302       -1.5847783900       -0.0825272308
 O          5.4628625120       -2.6006398366        0.8838866426
 C          5.8262831285       -0.0332440162        0.4893119294
 C          6.8816051642       -0.0463874510        1.3852645975
 C          7.4298842017        1.1511418070        1.8146102378
 C          6.9125920065        2.3572281471        1.3608628945
 C          5.8446812689        2.3663086136        0.4776620274
 C          5.3119784437        1.1672737315        0.0393115588
 S          3.9244172265        1.1717148256       -1.0997561955
 O          4.3746588532        0.8142665539       -2.4120006723
 O          3.2565139758        2.4452421357       -0.9682852513
 C          2.8403244071       -0.0864768679       -0.4398499837
 C          1.5050082856        0.1705595047       -0.3676730404
 C          0.5826643861       -0.7946549981        0.1461597270
 C         -0.8084606840       -0.5626146205        0.1620496262
 C         -1.3963560299        0.6119710648       -0.4249152653
 C         -2.7357549109        0.8291321458       -0.4301572803
 C         -3.6348597799       -0.1166704121        0.1292514528
 N         -4.9988661776        0.0877170557        0.0948167918
 C         -5.8613384351       -0.9975396510       -0.0601412283
 C         -5.4958524094       -2.0750849882       -0.8745278224
 C         -6.3464053708       -3.1511534963       -1.0192105482
 C         -7.5670162777       -3.1757474152       -0.3595690214
 C         -7.9332245904       -2.1099732221        0.4505893759
 C         -7.0923111774       -1.0274854501        0.6040493739
 C         -5.5152524925        1.3786074231        0.2025541021
 C         -4.8931585345        2.3176649921        1.0326815701
 C         -5.3979219305        3.5977765051        1.1272565750
 C         -6.5226745728        3.9650132840        0.4023348016
 C         -7.1430454949        3.0371882726       -0.4226406925
 C         -6.6485059612        1.7539074051       -0.5270599655
 C         -3.0830368778       -1.2825336317        0.7203909013
 C         -1.7413176873       -1.4869162196        0.7495273859
 C          1.1733507204       -2.0134871299        0.6338531359
 C          2.5176191525       -2.2430361646        0.5721925126
 C          3.3823006633       -1.2950504970        0.0100066875
 H          7.2494895130       -1.0009350785        1.7274667974
 H          8.2609280823        1.1455044496        2.5036013673
 H          7.3406469258        3.2895295189        1.6966764239
 H          5.4068564563        3.2838827430        0.1170787125
 H          1.1830103565        1.1415589109       -0.7041076029
 H         -0.7602392446        1.3345594689       -0.9061954354
 H         -3.1424291939        1.7058521056       -0.9132089617
 H         -4.5556102478       -2.0418073440       -1.4042548930
 H         -6.0606889511       -3.9730045056       -1.6578392943
 H         -8.2291179279       -4.0193363865       -0.4765180981
 H         -8.8781124008       -2.1282023756        0.9721600104
 H         -7.3671276816       -0.2071307577        1.2504281396
 H         -4.0310928370        2.0221087372        1.6117393072
 H         -4.9164916246        4.3129535291        1.7765873344
 H         -6.9135188005        4.9674965504        0.4793839181
 H         -8.0130053151        3.3205399221       -0.9953647278
 H         -7.1168566593        1.0382992902       -1.1864150573
 H         -3.7516318229       -1.9874621345        1.1936864670
 H         -1.3708777841       -2.3648363506        1.2506393815
 H          0.5428293123       -2.7792273474        1.0532342427
 H          2.9536889509       -3.1568150457        0.9443036338
  58
       -100.48591214
 O          5.4419852841       -2.1475686205        1.7784832371
 S          5.1426020952       -0.7834833995        1.4153858153
 O          5.6887166491        0.2467608829        2.2490871375
 C          5.7084398226       -0.5332314305       -0.2716323369
 C          6.6288728102       -1.4038180320       -0.8299070203
 C          7.0491277611       -1.2094654297       -2.1353356482
 C          6.5375669303       -0.1570008489       -2.8836754641
 C          5.6021572732        0.7009153785       -2.3271735678
 C          5.1981222549        0.5119868876       -1.0178169084
 S          3.9495170049        1.5857692778       -0.3022129980
 O          3.2275013249        2.1980686073       -1.3926906634
 O          4.5441920072        2.4722882879        0.6521685861
 C          2.8499419354        0.4228597500        0.4953599213
 C          1.5075111671        0.5431454498        0.3000672576
 C          0.5883022448       -0.4028977941        0.8478525125
 C         -0.8025282789       -0.2904133325        0.6360893299
 C         -1.4042873545        0.9221242462        0.1550628670
 C         -2.7383150663        1.0263206424       -0.0733696698
 C         -3.6019201380       -0.0839378043        0.1212294666
 N         -4.9501300467        0.0004873477       -0.1623943286
 C         -5.6183008907       -1.1076515163       -0.6828865981
 C         -4.9625883244       -1.9701145617       -1.5689046956
 C         -5.6182025871       -3.0748101370       -2.0708763914
 C         -6.9299263762       -3.3402913859       -1.7040066029
 C         -7.5849471985       -2.4873624297       -0.8264837634
 C         -6.9405879092       -1.3799456930       -0.3156315787
 C         -5.6397907059        1.1919266195        0.0605226942
 C         -5.3100378644        2.0001876726        1.1540481116
 C         -5.9853000771        3.1841020658        1.3664896981
 C         -6.9937443125        3.5829313776        0.5007721343
 C         -7.3235791519        2.7850464596       -0.5859573583
 C         -6.6553025670        1.5995993941       -0.8109856760
 C         -3.0338468646       -1.2900674479        0.6079178634
 C         -1.7055418429       -1.3817882428        0.8727716914
 C          1.1741170697       -1.4895348234        1.5851364211
 C          2.5236319885       -1.5978602388        1.7604064586
 C          3.3928475347       -0.6304298841        1.2402033687
 H          6.9940649064       -2.2187024538       -0.2246710977
 H          7.7744192318       -1.8793757840       -2.5718536405
 H          6.8644769906       -0.0087970777       -3.9016573976
 H          5.1682499546        1.5157360890       -2.8852435207
 H          1.1756628676        1.3451456421       -0.3384219011
 H         -0.7794576107        1.7820657682       -0.0185184244
 H         -3.1560542828        1.9471836621       -0.4537920520
 H         -3.9501098437       -1.7473261354       -1.8707354365
 H         -5.1065781774       -3.7294985961       -2.7597669150
 H         -7.4388047274       -4.2052490852       -2.0997236025
 H         -8.6029344581       -2.6935396862       -0.5325784031
 H         -7.4426584524       -0.7283670368        0.3841171889
 H         -4.5399940061        1.6757283092        1.8378682678
 H         -5.7304782579        3.7966029884        2.2177531839
 H         -7.5195701958        4.5092319262        0.6715152584
 H         -8.1013511810        3.0952369084       -1.2672328496
 H         -6.8960698910        0.9894101645       -1.6689462077
 H         -3.6883290303       -2.1272280846        0.8041637354
 H         -1.3183403054       -2.3116820815        1.2544689218
 H          0.5315072354       -2.2196116292        2.0489268223
 H          2.9609713722       -2.4141307113        2.3136982180
  58
       -100.48590319
 O          5.5217148715        1.7308190319        1.9630324328
 S          5.1847563009        1.2963367238        0.6292056724
 O          5.6845947669        2.0885060981       -0.4566331273
 C          5.7743025908       -0.3902908141        0.4406108031
 C          6.7569581204       -0.8773836196        1.2853830555
 C          7.2046023362       -2.1796877278        1.1352251109
 C          6.6587740635       -2.9957924406        0.1532108133
 C          5.6625608341       -2.5099590370       -0.6787746306
 C          5.2309038600       -1.2036549483       -0.5352026882
 S          3.9242265335       -0.5727535186       -1.5932729546
 O          3.1947563220       -1.7088685221       -2.1061820407
 O          4.4709710259        0.3314780767       -2.5596113326
 C          2.8596254956        0.2845395055       -0.4415962860
 C          1.5144250540        0.0840504557       -0.5121420228
 C          0.6125916177        0.7300965500        0.3904399660
 C         -0.7851519491        0.5622688728        0.2988551852
 C         -1.3908267566       -0.3593321087       -0.6246511560
 C         -2.7332126201       -0.5475578636       -0.6873434408
 C         -3.6182455869        0.1914044873        0.1416486315
 N         -4.9830804078        0.0024027049        0.0769332790
 C         -5.5037655991       -1.2629427061       -0.1917742112
 C         -4.8632019998       -2.4072473381        0.2966345670
 C         -5.3753467955       -3.6573885580        0.0186902444
 C         -6.5263605294       -3.7917693613       -0.7445325459
 C         -7.1655712052       -2.6598064568       -1.2309504413
 C         -6.6635214045       -1.4037751048       -0.9618718866
 C         -5.8463817003        1.0787189828        0.2861798536
 C         -7.0486296176        0.8999070650        0.9786093881
 C         -7.8874703578        1.9735434816        1.1934893848
 C         -7.5475054193        3.2357304937        0.7270314931
 C         -6.3560981413        3.4177277150        0.0392983111
 C         -5.5076322354        2.3528945851       -0.1817660874
 C         -3.0502986238        1.1334765887        1.0384475181
 C         -1.7057725844        1.2997615603        1.1221904560
 C          1.2302720983        1.5528547235        1.3973095555
 C          2.5831902364        1.7220836344        1.4657733877
 C          3.4303442732        1.1081135878        0.5347843424
 H          7.1485424424       -0.2204800385        2.0462218028
 H          7.9783232348       -2.5605610279        1.7845947415
 H          7.0074136882       -4.0109854255        0.0391064710
 H          5.2037995465       -3.1201098358       -1.4409305090
 H          1.1662176564       -0.5739636283       -1.2902100337
 H         -0.7640199468       -0.9228496283       -1.2941614064
 H         -3.1528628890       -1.2346271465       -1.4079308952
 H         -3.9809080780       -2.2983876698        0.9093882704
 H         -4.8788412530       -4.5338030821        0.4063913611
 H         -6.9231144865       -4.7717083210       -0.9589416015
 H         -8.0568516237       -2.7593908429       -1.8316447040
 H         -7.1478228848       -0.5238281835       -1.3585648282
 H         -7.3020613790       -0.0787103675        1.3586382499
 H         -8.8095200664        1.8285898650        1.7357331344
 H         -8.2073114413        4.0718039223        0.8983068635
 H         -6.0914133041        4.3953931916       -0.3335405038
 H         -4.5896849352        2.4857356056       -0.7345856275
 H         -3.7084125048        1.6884703380        1.6915600002
 H         -1.3240594001        2.0120157990        1.8337100961
 H          0.6165912018        2.0338983209        2.1403085657
 H          3.0405866018        2.3251297792        2.2344239972
  58
       -100.48578420
 O          5.4459975157       -2.1433000791        1.7784472203
 S          5.1511481387       -0.7812109449        1.4042651844
 O          5.7263798482        0.2541285228        2.2114092479
 C          5.6780268467       -0.5588948213       -0.2992305221
 C          6.5694993160       -1.4504679697       -0.8712766187
 C          6.9565755562       -1.2787997276       -2.1900270973
 C          6.4402451885       -0.2281700546       -2.9377354462
 C          5.5334680431        0.6508564511       -2.3669916021
 C          5.1631667665        0.4847355920       -1.0446919822
 S          3.9468176349        1.5823306602       -0.3101609735
 O          3.2074303221        2.1938625186       -1.3894168785
 O          4.5741035770        2.4694998354        0.6222445722
 C          2.8522117751        0.4376346038        0.5200248991
 C          1.5078679030        0.5643552378        0.3432922748
 C          0.5919218187       -0.3744761222        0.9078478492
 C         -0.7998675968       -0.2611460709        0.7028100177
 C         -1.4023261741        0.9526489638        0.2261034673
 C         -2.7345422560        1.0524321492       -0.0148474513
 C         -3.5936920597       -0.0641890001        0.1618243811
 N         -4.9366108157        0.0100743662       -0.1479985194
 C         -5.5822918857       -1.1015181987       -0.6896145844
 C         -4.9006267361       -1.9481519636       -1.5711311573
 C         -5.5345698231       -3.0550013843       -2.0955239471
 C         -6.8493409756       -3.3388348227       -1.7544544641
 C         -7.5297364808       -2.5019537586       -0.8808411052
 C         -6.9076166644       -1.3918560681       -0.3486522772
 C         -5.6421218294        1.1942439941        0.0623865856
 C         -5.3457020848        2.0020947428        1.1656169089
 C         -6.0377829663        3.1783325664        1.3660078565
 C         -7.0293968628        3.5702032726        0.4780364113
 C         -7.3255943975        2.7730932283       -0.6188233251
 C         -6.6410933794        1.5946749702       -0.8313643947
 C         -3.0265773871       -1.2681372021        0.6550647647
 C         -1.7009409640       -1.3548137613        0.9347334212
 C          1.1812270470       -1.4582650474        1.6461663254
 C          2.5323946365       -1.5721911076        1.8044315206
 C          3.3995535024       -0.6137648548        1.2645747812
 H          6.9385137060       -2.2635856749       -0.2659908757
 H          7.6590508351       -1.9654377278       -2.6377344763
 H          6.7410319053       -0.0978877640       -3.9661904488
 H          5.0970332849        1.4655340156       -2.9232714095
 H          1.1710002353        1.3625356141       -0.2973774148
 H         -0.7790616537        1.8163318321        0.0656038521
 H         -3.1531630018        1.9740027794       -0.3924568044
 H         -3.8852041330       -1.7114918262       -1.8516344979
 H         -5.0034392344       -3.6969974789       -2.7816094447
 H         -7.3411242482       -4.2055745584       -2.1674980115
 H         -8.5501454718       -2.7229277589       -0.6068061151
 H         -7.4294498381       -0.7520330402        0.3474298909
 H         -4.5882318533        1.6830582840        1.8658276571
 H         -5.8086342720        3.7909892323        2.2245352309
 H         -7.5676291156        4.4911649106        0.6388459701
 H         -8.0899133309        3.0781233812       -1.3173322427
 H         -6.8558351946        0.9846542234       -1.6962263941
 H         -3.6804091143       -2.1076964116        0.8433031143
 H         -1.3136199583       -2.2825726896        1.3216519879
 H          0.5403307968       -2.1805573734        2.1244242858
 H          2.9730549607       -2.3868816568        2.3574061369
  58
       -100.48578114
 O          5.4931160247        1.0391271760        2.4497401499
 S          5.1650893430        1.0399360188        1.0446211459
 O          5.6627416715        2.1350288276        0.2633347373
 C          5.7770622660       -0.4960100945        0.3413262527
 C          6.7750352742       -1.2022791882        0.9907223833
 C          7.2510981669       -2.3798720636        0.4378472233
 C          6.7193916827       -2.8558927531       -0.7533193933
 C          5.7074748474       -2.1556586654       -1.3907059464
 C          5.2467688211       -0.9723153193       -0.8421907303
 S          3.9234206787       -0.0688678797       -1.6524926820
 O          3.2074307154       -1.0045982337       -2.4875400977
 O          4.4513521048        1.0960346753       -2.2973348743
 C          2.8521659968        0.3834588739       -0.2954204771
 C          1.5082173778        0.2078097016       -0.4307847038
 C          0.6008582300        0.5673979295        0.6127484622
 C         -0.7958297193        0.4334171720        0.4628704041
 C         -1.3803346380       -0.3283391547       -0.6066995132
 C         -2.7220023166       -0.4879166965       -0.7306513751
 C         -3.6216709362        0.1364816524        0.1742309641
 N         -4.9858996158       -0.0217456236        0.0412068047
 C         -5.5023308396       -1.2359791251       -0.4109474186
 C         -4.8876734950       -2.4390869861       -0.0459619196
 C         -5.3897341576       -3.6385866535       -0.5051540248
 C         -6.5044643142       -3.6634446023       -1.3311497362
 C         -7.1170430587       -2.4727892833       -1.6967587665
 C         -6.6252182622       -1.2660701721       -1.2449107283
 C         -5.8468735688        1.0290468763        0.3557194552
 C         -7.0878876370        0.7772504603        0.9507661273
 C         -7.9277618714        1.8249169838        1.2656060837
 C         -7.5502984779        3.1336390277        0.9984059770
 C         -6.3195872459        3.3885152824        0.4102056387
 C         -5.4701219707        2.3502897934        0.0897261238
 C         -3.0715507094        0.9246349024        1.2191658195
 C         -1.7279125067        1.0491184047        1.3678709340
 C          1.2038764406        1.0726533984        1.8168406945
 C          2.5563847796        1.2093725645        1.9447118422
 C          3.4125069408        0.8838614902        0.8849134369
 H          7.1561005975       -0.8102416094        1.9206610943
 H          8.0362700807       -2.9285957724        0.9354706240
 H          7.0908652059       -3.7740937791       -1.1823882072
 H          5.2586221537       -2.5047202613       -2.3074404635
 H          1.1606420605       -0.1756044861       -1.3754425827
 H         -0.7349664600       -0.8042473280       -1.3254687606
 H         -3.1293985542       -1.0590893596       -1.5522773791
 H         -4.0339495629       -2.4168667957        0.6147463807
 H         -4.9143931577       -4.5618472513       -0.2109397835
 H         -6.8921535403       -4.6040576418       -1.6896139637
 H         -7.9799105000       -2.4866574144       -2.3451799064
 H         -7.0877770702       -0.3382030191       -1.5470215653
 H         -7.3715140586       -0.2397182842        1.1779902722
 H         -8.8803792868        1.6221075643        1.7310006718
 H         -8.2116317544        3.9490308867        1.2461944447
 H         -6.0250194944        4.4036944229        0.1920987342
 H         -4.5216040592        2.5430543049       -0.3887823633
 H         -3.7440656449        1.3901839055        1.9253608767
 H         -1.3523524901        1.6462173340        2.1819659988
 H          0.5782295391        1.3087436954        2.6617331136
 H          3.0066421138        1.5619252051        2.8593939001
