  58
  -100.126399769300       0.182011971625419      !
 O          5.5398457105       -1.8522806093       -1.3881383274
 S          5.1235971795       -1.5822682384       -0.0423651662
 O          5.4675880568       -2.5646145365        0.9569133204
 C          5.8275586787       -0.0117007701        0.4748993160
 C          6.8852076614        0.0063313879        1.3680185707
 C          7.4334633710        1.2181492941        1.7552354926
 C          6.9138585544        2.4077768871        1.2623672029
 C          5.8436577581        2.3861040091        0.3821626176
 C          5.3109563228        1.1724905356       -0.0140438935
 S          3.9204485205        1.1372642578       -1.1489748892
 O          4.3676306210        0.7360818367       -2.4495721328
 O          3.2516838665        2.4139323756       -1.0588442866
 C          2.8392571603       -0.0988487208       -0.4441133894
 C          1.5038898494        0.1593337008       -0.3771631498
 C          0.5837917718       -0.7887646606        0.1713898948
 C         -0.8075062997       -0.5575130592        0.1830757626
 C         -1.3980289515        0.5960715587       -0.4416848161
 C         -2.7376416461        0.8117829352       -0.4507516138
 C         -3.6344011955       -0.1153551927        0.1426347501
 N         -4.9986847797        0.0865827059        0.1048879215
 C         -5.8605286200       -1.0040280680       -0.0110682647
 C         -5.4961325823       -2.1081526640       -0.7895500676
 C         -6.3460392693       -3.1892231899       -0.8955783978
 C         -7.5649152849       -3.1925687834       -0.2322889765
 C         -7.9300334185       -2.1003520477        0.5423665201
 C         -7.0897495993       -1.0125777154        0.6569755114
 C         -5.5160109075        1.3799322418        0.1703153653
 C         -4.8926590318        2.3470267640        0.9666207386
 C         -5.3983861542        3.6291689777        1.0192270579
 C         -6.5253576955        3.9707454371        0.2852627514
 C         -7.1469838304        3.0150525573       -0.5062774981
 C         -6.6515030095        1.7294015161       -0.5685886212
 C         -3.0799482952       -1.2601122543        0.7713673330
 C         -1.7379655488       -1.4622433483        0.8038772146
 C          1.1768903453       -1.9899212120        0.6984230942
 C          2.5212111566       -2.2202690982        0.6410313096
 C          3.3835382278       -1.2910724312        0.0448858413
 H          7.2548787080       -0.9357969672        1.7413011617
 H          8.2662923825        1.2365002584        2.4418456932
 H          7.3418993424        3.3512559648        1.5653785925
 H          5.4040339064        3.2905991294       -0.0080586310
 H          1.1801044181        1.1181386087       -0.7453572171
 H         -0.7638432532        1.3025364416       -0.9487597984
 H         -3.1463933783        1.6713372493       -0.9620726380
 H         -4.5572962691       -2.0919805543       -1.3225588230
 H         -6.0611994790       -4.0319312015       -1.5068304984
 H         -8.2265194233       -4.0401941298       -0.3189450232
 H         -8.8735506987       -2.1017637475        1.0667274189
 H         -7.3636680453       -0.1710940424        1.2759951831
 H         -4.0288186777        2.0719376980        1.5530714850
 H         -4.9159535728        4.3662832930        1.6427693907
 H         -6.9169489298        4.9749236415        0.3294319174
 H         -8.0186903472        3.2781511536       -1.0859652967
 H         -7.1208815659        0.9915289757       -1.2021692179
 H         -3.7466493903       -1.9492248724        1.2699508632
 H         -1.3654001880       -2.3224181895        1.3333835930
 H          0.5481806232       -2.7415992675        1.1450773517
 H          2.9591062436       -3.1205832615        1.0426501578
  58
  -100.126322085400       0.167648204130905      !
 O          5.5128643738        1.2001836821        2.3465829413
 S          5.1775620560        1.1210513400        0.9456117749
 O          5.6720923237        2.1684834274        0.1001872986
 C          5.7767539640       -0.4570690430        0.3305098170
 C          6.7627667831       -1.1391794587        1.0226193103
 C          7.2178558926       -2.3565792912        0.5432861351
 C          6.6761289971       -2.8961130200       -0.6159130767
 C          5.6765743359       -2.2185832629       -1.2960002628
 C          5.2374447176       -0.9955334012       -0.8219905244
 S          3.9264429888       -0.1215113929       -1.6835675288
 O          3.2032380143       -1.0918943345       -2.4717878867
 O          4.4673065956        1.0037863571       -2.3846707392
 C          2.8576396525        0.4049431076       -0.3512046146
 C          1.5135785335        0.2215511457       -0.4720511493
 C          0.6086025758        0.6087932671        0.5654436241
 C         -0.7882038312        0.4620680558        0.4326108211
 C         -1.3891265201       -0.1947964216       -0.6972012358
 C         -2.7304390936       -0.3683385338       -0.8073047300
 C         -3.6192014760        0.1277034861        0.1829580161
 N         -4.9829594429       -0.0461983375        0.0706806703
 C         -5.4964747213       -1.2030093312       -0.5145596022
 C         -4.8489697657       -2.4306707394       -0.3360021902
 C         -5.3540389562       -3.5703657044       -0.9262554474
 C         -6.5047509431       -3.5107792443       -1.6993733043
 C         -7.1508301491       -2.2955487491       -1.8791764665
 C         -6.6558957031       -1.1479418486       -1.2959866823
 C         -5.8523498887        0.9352238634        0.5486981357
 C         -7.0530898216        0.5775739870        1.1709059757
 C         -7.8980009266        1.5551000809        1.6537002545
 C         -7.5656631779        2.8967025780        1.5274879797
 C         -6.3757791091        3.2561615805        0.9106279074
 C         -5.5212980671        2.2887875968        0.4241269509
 C         -3.0561420625        0.8109957783        1.2921863878
 C         -1.7125484390        0.9579378299        1.4169984478
 C          1.2221580652        1.1487855021        1.7504350190
 C          2.5741166286        1.3025467113        1.8612445064
 C          3.4242096565        0.9532864176        0.8044905739
 H          7.1510313357       -0.6975629274        1.9270316455
 H          7.9941945890       -2.8870385026        1.0736639911
 H          7.0305741103       -3.8458796178       -0.9867206507
 H          5.2208620480       -2.6150665363       -2.1897311081
 H          1.1686853875       -0.2164615637       -1.3933623564
 H         -0.7594992265       -0.5637521811       -1.4884811267
 H         -3.1465680183       -0.8496113241       -1.6805916511
 H         -3.9669230255       -2.4778115938        0.2849095433
 H         -4.8522083043       -4.5140910999       -0.7763197869
 H         -6.8959564242       -4.4050056750       -2.1587018060
 H         -8.0419091559       -2.2425944418       -2.4860582315
 H         -7.1455488346       -0.1984220023       -1.4536942291
 H         -7.3005961715       -0.4672777009        1.2865227126
 H         -8.8188415028        1.2703754707        2.1397044002
 H         -8.2301936997        3.6568812659        1.9072583906
 H         -6.1170096745        4.2983108753        0.8017249401
 H         -4.6044964910        2.5645000161       -0.0752135727
 H         -3.7170371534        1.1757464998        2.0654020410
 H         -1.3345078704        1.4656605711        2.2879601005
 H          0.6061824632        1.4192316406        2.5915578747
 H          3.0285094364        1.6904873853        2.7594254776
  58
  -100.126272886500       0.159143408927334      !
 O          5.4555616254       -2.5328752202        1.1072162036
 S          5.1254900760       -1.1295911984        1.1698568082
 O          5.5731104938       -0.4071809069        2.3248768624
 C          5.7944359362       -0.3454490044       -0.3015625576
 C          6.8038968067       -0.9666794194       -1.0167561547
 C          7.3142366959       -0.3558969460       -2.1503855939
 C          6.8047899496        0.8645089879       -2.5740911464
 C          5.7815884765        1.4739975063       -1.8653434920
 C          5.2861772644        0.8673338161       -0.7252301293
 S          3.9393603508        1.6344486541        0.1827302784
 O          3.2608293019        2.5306136976       -0.7241976316
 O          4.4304946215        2.2043501177        1.4015062956
 C          2.8441835174        0.2601599536        0.5125428142
 C          1.5089168166        0.4158465532        0.2953748123
 C          0.5840999761       -0.6519298570        0.5194769303
 C         -0.8060663519       -0.4870703354        0.3454889521
 C         -1.3819968173        0.7430180746       -0.1285909040
 C         -2.7195741310        0.9040000998       -0.2916713642
 C         -3.6253963593       -0.1542058385       -0.0175497956
 N         -4.9838935587       -0.0005028215       -0.2021317552
 C         -5.7532361931       -1.0850765994       -0.6247263765
 C         -5.2285741453       -2.0044636087       -1.5398722038
 C         -5.9843823362       -3.0847668817       -1.9442513048
 C         -7.2669988176       -3.2701261015       -1.4479447458
 C         -7.7920413841       -2.3605477983       -0.5404861377
 C         -7.0469727791       -1.2754431623       -0.1278301151
 C         -5.5898278217        1.2335274129        0.0323170391
 C         -5.1341422624        2.0574380437        1.0673472998
 C         -5.7298286299        3.2818990598        1.2880701797
 C         -6.7817403483        3.7064133298        0.4891109774
 C         -7.2365516035        2.8926826205       -0.5392395446
 C         -6.6497657461        1.6664295228       -0.7718271715
 C         -3.0853615033       -1.3795958571        0.4514008815
 C         -1.7492213153       -1.5340218163        0.6336806899
 C          1.1719008089       -1.9025667476        0.9239110896
 C          2.5164041902       -2.0452735555        1.1103718424
 C          3.3833317185       -0.9588685202        0.9372780542
 H          7.1658430189       -1.9204332607       -0.6661194587
 H          8.1085782080       -0.8309033252       -2.7060490350
 H          7.2027142997        1.3383551838       -3.4585270206
 H          5.3493081827        2.4122942176       -2.1758848017
 H          1.1886723044        1.3813000176       -0.0582065603
 H         -0.7339524018        1.5619317839       -0.3890098115
 H         -3.1114324924        1.8319073192       -0.6827162562
 H         -4.2382715871       -1.8451872496       -1.9392698457
 H         -5.5739905768       -3.7846607506       -2.6559716079
 H         -7.8532427500       -4.1181688282       -1.7654622007
 H         -8.7859907794       -2.5052263065       -0.1448515780
 H         -7.4463333255       -0.5789894840        0.5945580948
 H         -4.3304809218        1.7152337499        1.7017253817
 H         -5.3771091651        3.9071832023        2.0940296536
 H         -7.2447463693        4.6644579612        0.6659964578
 H         -8.0489626088        3.2218448383       -1.1691184466
 H         -6.9880282084        1.0424202067       -1.5857379567
 H         -3.7657443096       -2.1779992789        0.7112207751
 H         -1.3960859584       -2.4676413613        1.0369719903
 H          0.5404946958       -2.7607574246        1.0808431968
 H          2.9515055149       -2.9882380512        1.4023972752
  58
  -100.126246397000       0.154744394257024      !
 O          5.4652518350       -2.5697005412        0.9734839401
 S          5.1101007204       -1.1790678357        1.1205610905
 O          5.5023069954       -0.5358667330        2.3408671058
 C          5.8297166651       -0.2831226046       -0.2604586443
 C          6.8950965753       -0.8292243098       -0.9556133680
 C          7.4533697689       -0.1289979460       -2.0125062186
 C          6.9360355268        1.1056672511       -2.3813168883
 C          5.8577587274        1.6405212299       -1.6940654751
 C          5.3146730127        0.9445898657       -0.6290520822
 S          3.9118180914        1.6269738803        0.2607904262
 O          3.2525313778        2.5622228506       -0.6199093440
 O          4.3417691579        2.1318736848        1.5303695581
 C          2.8308448219        0.2186057465        0.4691897271
 C          1.4987407854        0.3712674935        0.2302499503
 C          0.5828473578       -0.7166377428        0.3800019459
 C         -0.8073041771       -0.5514056341        0.2066256629
 C         -1.3790643685        0.6683269445       -0.2970496704
 C         -2.7183655531        0.8406348690       -0.4307847654
 C         -3.6297434245       -0.1949182627       -0.0937264100
 N         -4.9915171209       -0.0166734334       -0.2233279141
 C         -5.8063478998       -1.0914044906       -0.5790175780
 C         -5.3480163496       -2.0516753669       -1.4877416295
 C         -6.1512963817       -3.1201763363       -1.8274740893
 C         -7.4161077758       -3.2531395406       -1.2722626181
 C         -7.8749168374       -2.3035272957       -0.3699655208
 C         -7.0821371492       -1.2300800007       -0.0215310441
 C         -5.5568080598        1.2375239701        0.0075910555
 C         -5.0365840677        2.0723496244        1.0027779105
 C         -5.5907883541        3.3166481488        1.2197801774
 C         -6.6652916995        3.7502698384        0.4563455196
 C         -7.1847136683        2.9258229445       -0.5320507669
 C         -6.6393312543        1.6797828538       -0.7605868736
 C         -3.0918912301       -1.4173877493        0.3860217139
 C         -1.7529244493       -1.5841103348        0.5350779461
 C          1.1755325023       -1.9823603900        0.7238223622
 C          2.5176860738       -2.1210438717        0.9303028385
 C          3.3746795098       -1.0167597492        0.8375475012
 H          7.2629839282       -1.7960815923       -0.6497898958
 H          8.2922881602       -0.5450314436       -2.5496719996
 H          7.3716813891        1.6497698010       -3.2055327590
 H          5.4199233060        2.5888000432       -1.9637271973
 H          1.1699575984        1.3539465661       -0.0633119792
 H         -0.7257769022        1.4639063210       -0.6121878663
 H         -3.1100871147        1.7582580566       -0.8455879283
 H         -4.3720078935       -1.9328682448       -1.9340020558
 H         -5.7931769449       -3.8510571524       -2.5364070290
 H         -8.0405097564       -4.0908373683       -1.5407545527
 H         -8.8548315829       -2.4068184747        0.0707631515
 H         -7.4298993835       -0.5021366000        0.6963435191
 H         -4.2153763477        1.7228538586        1.6103476449
 H         -5.1884419274        3.9500379226        1.9954256004
 H         -7.0956219081        4.7240280971        0.6303057956
 H         -8.0155679393        3.2617524227       -1.1337147120
 H         -7.0293088284        1.0462495117       -1.5434751199
 H         -3.7741281101       -2.2004658382        0.6846417918
 H         -1.3976958259       -2.5090145854        0.9567340843
 H          0.5504220503       -2.8559157147        0.8047997720
 H          2.9584097601       -3.0746873079        1.1753979319
  58
  -100.125905017900       0.107827107055479      !
 O          5.5833877233       -1.5930670009       -1.6324056773
 S          5.1340653180       -1.5487148294       -0.2715296964
 O          5.4694793840       -2.6753655112        0.5652630733
 C          5.7922171183       -0.0727639426        0.5125694092
 C          6.7949282221       -0.1821277681        1.4608931374
 C          7.2934325914        0.9607885632        2.0639656893
 C          6.7774944472        2.2065444656        1.7310523412
 C          5.7605908137        2.3098949942        0.7951824052
 C          5.2782976353        1.1669619243        0.1831883803
 S          3.9391855376        1.2873388302       -1.0069056110
 O          4.4393418423        1.0793150390       -2.3327010885
 O          3.2517418925        2.5335707269       -0.7623530732
 C          2.8474784545       -0.0419061388       -0.5190117044
 C          1.5088501150        0.1975630653       -0.4426052421
 C          0.5962838019       -0.8125338656       -0.0092547454
 C         -0.7954153960       -0.5845624060        0.0347364689
 C         -1.4065935694        0.5223794219       -0.6475810332
 C         -2.7465018653        0.7369009366       -0.6212401316
 C         -3.6153427273       -0.1361812894        0.0865617314
 N         -4.9785231954        0.0704858309        0.1021822418
 C         -5.8486106208       -1.0192642117        0.1615906820
 C         -5.5454867635       -2.2019972820       -0.5216987674
 C         -6.4003667516       -3.2816448725       -0.4458987606
 C         -7.5639931632       -3.2052133382        0.3063535455
 C         -7.8697591598       -2.0334184369        0.9844995112
 C         -7.0238980190       -0.9461478366        0.9170552151
 C         -5.4958134951        1.3649937202        0.0554580771
 C         -4.8376700143        2.4135020911        0.7076551311
 C         -5.3470139830        3.6938177963        0.6446028343
 C         -6.5122792497        3.9528726329       -0.0629287456
 C         -7.1696503127        2.9157471094       -0.7100259284
 C         -6.6708588818        1.6311440188       -0.6561043886
 C         -3.0347362363       -1.2334222692        0.7752706026
 C         -1.6938663118       -1.4444443421        0.7540981088
 C          1.1861504909       -2.0632611492        0.3847804832
 C          2.5316399722       -2.2810546105        0.3070207924
 C          3.3911888279       -1.2845015785       -0.1730222955
 H          7.1623721828       -1.1665875552        1.7047092048
 H          8.0837114154        0.8818001036        2.7951729452
 H          7.1651674838        3.0957839518        2.2042515734
 H          5.3230641451        3.2586831726        0.5268873439
 H          1.1744813403        1.1951136753       -0.6753840615
 H         -0.7890185723        1.1729512204       -1.2434924394
 H         -3.1785187875        1.5495548926       -1.1870558744
 H         -4.6504639279       -2.2498330010       -1.1236992733
 H         -6.1628113737       -4.1872481546       -0.9828953723
 H         -8.2281199833       -4.0531935954        0.3644310477
 H         -8.7694296151       -1.9720295019        1.5776742579
 H         -7.2504035018       -0.0404633698        1.4599319212
 H         -3.9439027714        2.2046913771        1.2762292709
 H         -4.8372587281        4.4950165143        1.1575708424
 H         -6.9060783416        4.9560485560       -0.1098404408
 H         -8.0719916310        3.1134097284       -1.2684769618
 H         -7.1692363250        0.8275133962       -1.1776578796
 H         -3.6774083033       -1.8745321718        1.3615390638
 H         -1.2901286635       -2.2562464237        1.3357356151
 H          0.5486520876       -2.8668314501        0.7146484441
 H          2.9726832946       -3.2216680576        0.5975465487
  58
  -100.125637269500       8.122305277890993E-002 !
 O          5.4905007496        0.5283452706        2.6135394668
 S          5.1607034953        0.8243045850        1.2403667067
 O          5.6514419869        2.0625369409        0.7081534809
 C          5.7800854761       -0.5248691290        0.2282593608
 C          6.7826805953       -1.3468888236        0.7136129857
 C          7.2644065967       -2.3783585883       -0.0757171002
 C          6.7337806563       -2.5948008759       -1.3405389209
 C          5.7172896959       -1.7812955322       -1.8154286559
 C          5.2508837347       -0.7431985221       -1.0291459226
 S          3.9216494959        0.3037449003       -1.6300640900
 O          3.2096775363       -0.4383072553       -2.6439633141
 O          4.4424611466        1.5815376104       -2.0141630625
 C          2.8496762289        0.4530639939       -0.2079501080
 C          1.5065274440        0.3025360655       -0.3772624834
 C          0.5985533944        0.4283935839        0.7187798496
 C         -0.7975775098        0.3213669337        0.5440935654
 C         -1.3793027826       -0.2003451734       -0.6622690225
 C         -2.7202431774       -0.3375643057       -0.8170300740
 C         -3.6221334568        0.0764647961        0.1994652766
 N         -4.9856532422       -0.0576422971        0.0361243127
 C         -5.4960809735       -1.1517226954       -0.6624164949
 C         -4.8744676635       -2.4013627272       -0.5600286313
 C         -5.3706135944       -3.4794750724       -1.2623353569
 C         -6.4862333875       -3.3353746482       -2.0748239414
 C         -7.1057015831       -2.0977623001       -2.1804534839
 C         -6.6198396546       -1.0110982902       -1.4837980385
 C         -5.8518992197        0.8981379558        0.5657102336
 C         -7.0907825669        0.5193741274        1.0942023423
 C         -7.9359118360        1.4721470288        1.6234455653
 C         -7.5658675025        2.8098529830        1.6388686051
 C         -6.3372948555        3.1901227660        1.1177200439
 C         -5.4826328513        2.2478226916        0.5849593399
 C         -3.0749661315        0.6289930933        1.3873318770
 C         -1.7318342821        0.7266906192        1.5588690495
 C          1.2003481798        0.6710735956        2.0024081459
 C          2.5522576065        0.7851829260        2.1561674734
 C          3.4087906964        0.6957855707        1.0514347215
 H          7.1627925066       -1.1581533810        1.7053710800
 H          8.0531607140       -3.0154969428        0.2946116071
 H          7.1096724044       -3.3994918028       -1.9540237663
 H          5.2691757276       -1.9311937849       -2.7851911518
 H          1.1598398402        0.1255260555       -1.3815874858
 H         -0.7322773202       -0.5099902671       -1.4654476282
 H         -3.1255804562       -0.7244243752       -1.7407833814
 H         -4.0200441661       -2.5145546292        0.0903726508
 H         -4.8899168618       -4.4414096430       -1.1699570557
 H         -6.8692825010       -4.1811084885       -2.6239688008
 H         -7.9692981204       -1.9790549696       -2.8170790500
 H         -7.0877892547       -0.0429213048       -1.5829219957
 H         -7.3686193125       -0.5242041520        1.1013650112
 H         -8.8868312899        1.1702673167        2.0355433145
 H         -8.2312871519        3.5507658384        2.0534642419
 H         -6.0484957791        4.2300855959        1.1190893902
 H         -4.5357750551        2.5426336230        0.1579211847
 H         -3.7490977704        0.9310202302        2.1760332234
 H         -1.3584824133        1.1403058362        2.4807443481
 H          0.5744994015        0.7197743772        2.8781691944
 H          3.0017547298        0.9389349087        3.1246616460
  58
  -100.125604703000       7.847164942830864E-002 !
 O          5.4508633963       -2.2143165023        1.6658775765
 S          5.1470297705       -0.8353002263        1.3688964995
 O          5.6915212318        0.1554644532        2.2501550772
 C          5.7094996448       -0.5029698956       -0.3050248903
 C          6.6315268355       -1.3431600774       -0.9056369576
 C          7.0491737993       -1.0853466966       -2.2008722006
 C          6.5334444659        0.0002201151       -2.8972604611
 C          5.5964739463        0.8277956171       -2.2990039323
 C          5.1950375738        0.5752594920       -0.9996088898
 S          3.9445091317        1.6099271479       -0.2316543952
 O          3.2190403869        2.2715903332       -1.2905479589
 O          4.5381594776        2.4514994755        0.7631992654
 C          2.8495027313        0.4069868707        0.5109371059
 C          1.5064297239        0.5325620183        0.3235497507
 C          0.5907787039       -0.4412840139        0.8267581198
 C         -0.8006975074       -0.3228542941        0.6226152778
 C         -1.4066596893        0.9095487834        0.2010226883
 C         -2.7413360208        1.0206632121       -0.0202484637
 C         -3.6014716544       -0.1001488632        0.1222413457
 N         -4.9503606444       -0.0061836972       -0.1550834853
 C         -5.6161936032       -1.0900949641       -0.7270441989
 C         -4.9594239281       -1.9072622698       -1.6542554649
 C         -5.6126810448       -2.9885836936       -2.2075700922
 C         -6.9230656587       -3.2751391494       -1.8519422408
 C         -7.5791298262       -2.4670865000       -0.9336736854
 C         -6.9371214009       -1.3835047622       -0.3713423985
 C         -5.6430569579        1.1712087239        0.1255769253
 C         -5.3138859111        1.9271828975        1.2560503552
 C         -5.9921789174        3.0976022895        1.5258666231
 C         -7.0031139095        3.5344516365        0.6816719856
 C         -7.3323857889        2.7885162806       -0.4415167020
 C         -6.6610938055        1.6171478122       -0.7239685867
 C         -3.0292044249       -1.3265205330        0.5498443182
 C         -1.7002289755       -1.4269329718        0.8081001645
 C          1.1808414797       -1.5602384138        1.5103614961
 C          2.5309330854       -1.6728883770        1.6783113093
 C          3.3965735170       -0.6791453250        1.2037485616
 H          6.9999872211       -2.1849999977       -0.3406104955
 H          7.7756810117       -1.7314860116       -2.6699849950
 H          6.8583303465        0.1979125230       -3.9074528382
 H          5.1593730517        1.6671147911       -2.8168229701
 H          1.1712973255        1.3632207893       -0.2753561599
 H         -0.7845528789        1.7786295293        0.0678916697
 H         -3.1622912534        1.9574504166       -0.3555727375
 H         -3.9480592988       -1.6673352970       -1.9465323666
 H         -5.1002799320       -3.6080671431       -2.9277312019
 H         -7.4301026456       -4.1216539797       -2.2878631941
 H         -8.5960629295       -2.6900582773       -0.6485103418
 H         -7.4399427751       -0.7676191836        0.3595019988
 H         -4.5418476668        1.5726254457        1.9224566810
 H         -5.7377624873        3.6694137953        2.4050963677
 H         -7.5313039942        4.4499842984        0.8972965665
 H         -8.1121075642        3.1286769260       -1.1060529517
 H         -6.9014729229        1.0480067613       -1.6097972486
 H         -3.6809926756       -2.1740174674        0.7067465222
 H         -1.3097835617       -2.3728906924        1.1443095149
 H          0.5410415437       -2.3135406451        1.9396083575
 H          2.9714626380       -2.5134170220        2.1912833379
  58
  -100.125482189800       6.893021179662019E-002 !
 O          5.4545231398       -2.2139466068        1.6619616197
 S          5.1552979525       -0.8356778394        1.3568802325
 O          5.7287272293        0.1595760835        2.2141721114
 C          5.6791610056       -0.5267535538       -0.3339942575
 C          6.5723508805       -1.3859559705       -0.9511211762
 C          6.9570939087       -1.1473002572       -2.2600967599
 C          6.4367472589       -0.0620221970       -2.9535651654
 C          5.5282864584        0.7846703295       -2.3383484034
 C          5.1603075827        0.5514257346       -1.0255712075
 S          3.9418871877        1.6073074444       -0.2354310284
 O          3.1992629914        2.2700092016       -1.2817549766
 O          4.5679649442        2.4484516915        0.7394740432
 C          2.8516871946        0.4192837022        0.5377204418
 C          1.5067441639        0.5508078207        0.3692489709
 C          0.5942488742       -0.4177825490        0.8871964495
 C         -0.7981411924       -0.2983511432        0.6898438926
 C         -1.4046979794        0.9360572197        0.2753216174
 C         -2.7375269431        1.0439309614        0.0413474151
 C         -3.5932660804       -0.0826236539        0.1629177246
 N         -4.9368218515        0.0031826397       -0.1411073280
 C         -5.5801127949       -1.0817379545       -0.7369379272
 C         -4.8972894430       -1.8811575300       -1.6606306189
 C         -5.5288317770       -2.9621700316       -2.2390366417
 C         -6.8423160320       -3.2665440603       -1.9109687232
 C         -7.5238532142       -2.4764651832       -0.9956596513
 C         -6.9041323712       -1.3926334054       -0.4092897583
 C         -5.6453851554        1.1732741563        0.1292429587
 C         -5.3497084708        1.9256817666        1.2711986187
 C         -6.0448332558        3.0883911778        1.5311529505
 C         -7.0387936122        3.5213929569        0.6651816307
 C         -7.3342695598        2.7793939237       -0.4698734705
 C         -6.6467354358        1.6150937232       -0.7420623985
 C         -3.0220577414       -1.3081284591        0.5944909013
 C         -1.6957912990       -1.4048713062        0.8677992527
 C          1.1876506938       -1.5354962163        1.5695333877
 C          2.5393553643       -1.6532967204        1.7201932666
 C          3.4030428071       -0.6665150998        1.2279568251
 H          6.9445109986       -2.2273112024       -0.3878085868
 H          7.6608817473       -1.8086037900       -2.7425337752
 H          6.7357245531        0.1205030653       -3.9745759013
 H          5.0887704791        1.6249325189       -2.8525538228
 H          1.1667233484        1.3791107419       -0.2301920234
 H         -0.7841047068        1.8084989212        0.1575236831
 H         -3.1592813689        1.9820498327       -0.2890777149
 H         -3.8829340212       -1.6277991712       -1.9301966182
 H         -4.9968476876       -3.5674389065       -2.9570996719
 H         -7.3322227415       -4.1129176189       -2.3663111701
 H         -8.5432484305       -2.7138474858       -0.7317615104
 H         -7.4267989535       -0.7900088711        0.3186367951
 H         -4.5903594475        1.5741531453        1.9535894121
 H         -5.8162175090        3.6579180850        2.4190158393
 H         -7.5794037046        4.4315769051        0.8726181731
 H         -8.1004252427        3.1168287826       -1.1512578846
 H         -6.8609606981        1.0485585613       -1.6361379457
 H         -3.6732474983       -2.1579554216        0.7412400213
 H         -1.3053059212       -2.3497277994        1.2072510825
 H          0.5494704640       -2.2826996218        2.0117979573
 H          2.9830922998       -2.4933940177        2.2310916926
