  58
       -100.48620109
 O          5.5862743693       -1.5423018332       -1.6708300212
 S          5.1334286106       -1.5435139653       -0.3103997863
 O          5.4656842867       -2.6981013058        0.4887251931
 C          5.7907907063       -0.0955112197        0.5248063822
 C          6.7909212807       -0.2377904916        1.4714865501
 C          7.2888249170        0.8836330131        2.1141078551
 C          6.7748287152        2.1404096406        1.8221290073
 C          5.7604679010        2.2762718394        0.8876556421
 C          5.2787987383        1.1551176019        0.2361593703
 S          3.9429109030        1.3168875755       -0.9526508268
 O          4.4463581572        1.1532886279       -2.2834175688
 O          3.2558983174        2.5547980767       -0.6679229787
 C          2.8487906046       -0.0270448693       -0.5127606548
 C          1.5101726600        0.2109726686       -0.4317734413
 C          0.5956089550       -0.8123211381       -0.0351517662
 C         -0.7960046359       -0.5846497689        0.0129131039
 C         -1.4044447275        0.5452832846       -0.6332046046
 C         -2.7442329348        0.7600595614       -0.6031001990
 C         -3.6156724317       -0.1356087615        0.0725564836
 N         -4.9787113901        0.0717016933        0.0916211262
 C         -5.8498856093       -1.0186099501        0.1119348186
 C         -5.5459881807       -2.1778760808       -0.6101278181
 C         -6.4019892735       -3.2586590476       -0.5730513781
 C         -7.5675152964       -3.2065783679        0.1783396185
 C         -7.8740507678       -2.0580679404        0.8948854222
 C         -7.0270838279       -0.9699400044        0.8663940447
 C         -5.4947672443        1.3675376592        0.0873104191
 C         -4.8374346846        2.3927969777        0.7762522732
 C         -5.3455136579        3.6749928351        0.7551639924
 C         -6.5086998566        3.9588985481        0.0537733023
 C         -7.1652635923        2.9448425981       -0.6296851245
 C         -6.6677168870        1.6586801740       -0.6178944848
 C         -3.0378123213       -1.2560334692        0.7253104508
 C         -1.6970730201       -1.4674877755        0.7004921773
 C          1.1833691262       -2.0762006120        0.3179372692
 C          2.5288703183       -2.2925155656        0.2363475120
 C          3.3905274043       -1.2811307444       -0.2075346306
 H          7.1568812233       -1.2302705198        1.6828609227
 H          8.0771185294        0.7792457708        2.8442724474
 H          7.1620239295        3.0127924358        2.3260961542
 H          5.3244590170        3.2339936746        0.6504300690
 H          1.1772701063        1.2161319865       -0.6315891342
 H         -0.7847539186        1.2150266905       -1.2052011236
 H         -3.1740698604        1.5917685094       -1.1422597035
 H         -4.6494335857       -2.2061980820       -1.2110824452
 H         -6.1638054430       -4.1458326983       -1.1397140640
 H         -8.2325188697       -4.0554080632        0.2060225014
 H         -8.7752182339       -2.0158979759        1.4874651230
 H         -7.2542331311       -0.0828942646        1.4389647868
 H         -3.9453385675        2.1640567193        1.3397598270
 H         -4.8364163149        4.4579265030        1.2962192113
 H         -6.9015143218        4.9634584652        0.0397542676
 H         -8.0659698174        3.1621073243       -1.1834741252
 H         -7.1654160683        0.8735952082       -1.1675829592
 H         -3.6825667430       -1.9159709598        1.2879242133
 H         -1.2955559556       -2.2988529795        1.2554199578
 H          0.5443203424       -2.8898506571        0.6188235770
 H          2.9683446481       -3.2428215080        0.4960762427
