  80
       -125.54084279
 C          7.9314116828       -4.7785154848        0.1747674322
 C          6.5498218944       -4.7890724374        0.0619081039
 C          5.8491455445       -3.5995976029        0.0176327491
 C          6.5304847045       -2.3858530689        0.0839321847
 C          5.7929651540       -1.1234994007        0.0354353814
 N          6.4925253344        0.0069191722        0.0044337622
 C          5.7850389289        1.1321141082       -0.0339949017
 C          6.5139762875        2.3996083877       -0.0799941757
 C          5.8230407409        3.6089857755       -0.0383034387
 C          6.5161216336        4.8029339349       -0.0837404635
 C          7.8995471146        4.8012178030       -0.1726553778
 C          8.5915029054        3.6006835056       -0.2156374609
 C          7.9047427706        2.4033024535       -0.1688678354
 N          4.4553013888        1.1738125416       -0.0334334053
 C          3.8366028651       -0.0027878148       -0.0064013045
 C          2.3738953343       -0.0085654086       -0.0101786031
 C          1.6675124723        1.1920884817       -0.0619826325
 C          0.2883830188        1.1869167802       -0.0621587076
 C         -0.4049938711       -0.0194841447       -0.0097552173
 N         -1.8222282539       -0.0229492938       -0.0041289590
 C         -2.4932322448        0.4247929349        1.1269161991
 C         -1.7806616213        0.8137582123        2.2647950807
 C         -2.4365233733        1.2669021540        3.3910017362
 C         -3.8188376821        1.3344164145        3.4148269012
 C         -4.5314643030        0.9228311359        2.3046937192
 C         -3.8891113217        0.4631644358        1.1645592077
 C         -4.7317538069       -0.0041784582        0.0034301807
 C         -5.7100736078       -1.0719756522        0.4533189086
 C         -5.4321347431       -2.3159163578        0.9744141071
 C         -6.4935025056       -3.1408895478        1.3220773711
 C         -7.8039003342       -2.7223145860        1.1485487058
 C         -8.0879428680       -1.4709003857        0.6253515303
 C         -7.0332444735       -0.6435322705        0.2774238705
 C         -7.0129533424        0.6998477590       -0.2817936996
 C         -8.0423612719        1.5569094879       -0.6333872848
 C         -7.7209537043        2.8018233440       -1.1505285096
 C         -6.3985606242        3.1849360299       -1.3142385965
 C         -5.3623577355        2.3294949511       -0.9641127530
 C         -5.6773969498        1.0918054306       -0.4493191538
 C         -3.9009960531       -0.4954403972       -1.1566693151
 C         -4.5552556101       -0.9585690909       -2.2886000242
 C         -3.8539726791       -1.3893565401       -3.3986800089
 C         -2.4708449216       -1.3378927537       -3.3833710158
 C         -1.8031328042       -0.8813421720       -2.2654823255
 C         -2.5044099396       -0.4727909834       -1.1275037334
 C          0.2976164549       -1.2205227924        0.0405871850
 C          1.6768914045       -1.2146765546        0.0399663154
 N          4.4637409071       -1.1748932644        0.0241666314
 C          7.9193459124       -2.3805890795        0.1968634531
 C          8.6137441488       -3.5736386624        0.2429823303
 H          8.4768665570       -5.7102826003        0.2100052489
 H          6.0204559643       -5.7292821643        0.0087809245
 H          4.7742868842       -3.5883920304       -0.0705551969
 H          4.7468746197        3.5912062285        0.0317204626
 H          5.9793570349        5.7397256838       -0.0497077365
 H          8.4390638109        5.7364059504       -0.2091321710
 H          9.6694068621        3.6018346771       -0.2863462597
 H          8.4256206004        1.4594208750       -0.2032729886
 H          2.2186519188        2.1179098242       -0.1061904703
 H         -0.2660853474        2.1131164754       -0.1008316077
 H         -0.7032695841        0.7531462153        2.2685201300
 H         -1.8611286224        1.5647205991        4.2549329357
 H         -4.3362385219        1.6923780820        4.2913702801
 H         -5.6114161898        0.9521886868        2.3155176592
 H         -4.4109834726       -2.6418188792        1.1102698622
 H         -6.2963860286       -4.1202557349        1.7328571704
 H         -8.6140045018       -3.3813378103        1.4255892382
 H         -9.1103568156       -1.1490672600        0.4926795112
 H         -9.0740215502        1.2629045827       -0.5077918172
 H         -8.5110162115        3.4838042613       -1.4298924976
 H         -6.1720191909        4.1602784707       -1.7194465397
 H         -4.3319510210        2.6280038860       -1.0929362886
 H         -5.6355522844       -0.9744470641       -2.2935567893
 H         -4.3807271417       -1.7497348662       -4.2686631963
 H         -1.9040616492       -1.6514110444       -4.2474446530
 H         -0.7250935685       -0.8327106014       -2.2762572171
 H         -0.2492273798       -2.1511417092        0.0808277439
 H          2.2352033422       -2.1361325316        0.0851509106
 H          8.4329538722       -1.4335319741        0.2498340603
 H          9.6901849209       -3.5679071315        0.3322721322
  80
       -125.54076234
 C          7.7534585373       -4.9263048878       -0.1306924209
 C          6.3728848571       -4.8800618801       -0.2478406972
 C          5.7142474584       -3.6665739341       -0.2084910218
 C          6.4371560663       -2.4854987032       -0.0523687893
 C          5.7439398548       -1.1978774441       -0.0122896747
 N          6.4817009990       -0.0936508070        0.0573840786
 C          5.8134162001        1.0557709412        0.0818104427
 C          6.5820436778        2.2978160459        0.1613159295
 C          5.9249301950        3.5250640888        0.2257438148
 C          6.6530276008        4.6960883528        0.3036687476
 C          8.0385002713        4.6535820150        0.3180424136
 C          8.6968715766        3.4352558162        0.2541869725
 C          7.9747532053        2.2604836992        0.1759440238
 N          4.4868430794        1.1443820722        0.0403544183
 C          3.8280795127       -0.0090421707       -0.0179302649
 C          2.3669384308        0.0401161060       -0.0479485122
 C          1.7099317938        1.2641502037       -0.1634704550
 C          0.3320163842        1.3140452023       -0.1857274785
 C         -0.4107125423        0.1401243239       -0.0837927300
 N         -1.8259993540        0.1828685954       -0.0957277191
 C         -2.5035468175        0.7687211897        0.9674275786
 C         -1.8022311901        1.3171580241        2.0448082836
 C         -2.4689318862        1.9164127720        3.0939336404
 C         -3.8515709291        1.9765386191        3.1004223887
 C         -4.5538536278        1.4008771555        2.0587034354
 C         -3.9006712031        0.7915543356        0.9977412772
 C         -4.7294200474        0.1012097552       -0.0579056712
 C         -5.4813713909       -1.0607078051        0.5663247431
 C         -4.9627636732       -2.1821625603        1.1740119289
 C         -5.8438005521       -3.1243871834        1.6875065611
 C         -7.2146171869       -2.9400393453        1.5913041556
 C         -7.7401554826       -1.8124405113        0.9807885367
 C         -6.8660987763       -0.8693566405        0.4665003692
 C         -7.1099045028        0.3934311084       -0.2143802089
 C         -8.2903917015        1.0297985599       -0.5600586218
 C         -8.2189421324        2.2470818318       -1.2187288502
 C         -6.9939975305        2.8190745715       -1.5266481624
 C         -5.8071195281        2.1857514123       -1.1823115203
 C         -5.8733069167        0.9759601598       -0.5275524161
 C         -3.8986826444       -0.3765798309       -1.2228627255
 C         -4.5460423642       -0.8907102522       -2.3365568723
 C         -3.8382277215       -1.3423591472       -3.4342230146
 C         -2.4563335516       -1.2631788109       -3.4244407466
 C         -1.7957791210       -0.7551260778       -2.3246258569
 C         -2.5030310817       -0.3239514465       -1.1988004893
 C          0.2434154816       -1.0844165872        0.0273348455
 C          1.6215268395       -1.1342486629        0.0422031501
 N          4.4139326242       -1.2022411889       -0.0466987890
 C          7.8248616220       -2.5372564196        0.0637185684
 C          8.4770957246       -3.7541623759        0.0251875478
 H          8.2660456022       -5.8767819591       -0.1613251215
 H          5.8113916424       -5.7947384078       -0.3702272611
 H          4.6409323642       -3.6110572845       -0.3000606721
 H          4.8465621526        3.5384034725        0.2157577182
 H          6.1421923902        5.6465518825        0.3537029632
 H          8.6056912293        5.5708509904        0.3795616388
 H          9.7764498813        3.4047985722        0.2659183891
 H          8.4696365885        1.3034301061        0.1249066681
 H          2.2983081917        2.1645057327       -0.2422254233
 H         -0.1827528601        2.2587429395       -0.2825511779
 H         -0.7247962629        1.2646924554        2.0668960261
 H         -1.9010129971        2.3344786003        3.9117353060
 H         -4.3774684760        2.4492506950        3.9153866488
 H         -5.6341963406        1.4130043915        2.0654215809
 H         -3.8944832038       -2.3246557702        1.2515812006
 H         -5.4570896618       -4.0107226456        2.1688197359
 H         -7.8814380872       -3.6858994255        1.9991415122
 H         -8.8087888105       -1.6729698222        0.9096988489
 H         -9.2468047708        0.5876508301       -0.3229699053
 H         -9.1296083500        2.7574426349       -1.4971348716
 H         -6.9629422049        3.7682972091       -2.0411544715
 H         -4.8526985721        2.6308934903       -1.4235633604
 H         -5.6255047089       -0.9342360808       -2.3359554490
 H         -4.3594024043       -1.7429412560       -4.2897975681
 H         -1.8850995567       -1.5938767475       -4.2790934058
 H         -0.7189311756       -0.6848399181       -2.3397010212
 H         -0.3408318338       -1.9900933335        0.0994326311
 H          2.1414583120       -2.0746238231        0.1328730656
 H          8.3709785142       -1.6150578373        0.1848153577
 H          9.5528330374       -3.7926247498        0.1157562949
  80
       -125.54066601
 C          7.5738829462       -4.8339921332        1.3543262279
 C          6.1906847592       -4.7542701143        1.3077465585
 C          5.5763517352       -3.5612239961        0.9810545206
 C          6.3459788284       -2.4345586900        0.6971472723
 C          5.6964607799       -1.1720357940        0.3450788515
 N          6.4677278762       -0.1280245487        0.0563453830
 C          5.8342760081        0.9947691931       -0.2703091437
 C          6.6423209385        2.1706484710       -0.5930416325
 C          6.0259054495        3.3725244489       -0.9356714186
 C          6.7922792003        4.4807883893       -1.2395058627
 C          8.1760623527        4.4002507697       -1.2049590198
 C          8.7940637194        3.2072856878       -0.8635129045
 C          8.0335137122        2.0953931537       -0.5586287296
 N          4.5097045763        1.1130464981       -0.3219140082
 C          3.8166610104        0.0230530690       -0.0080734619
 C          2.3558910656        0.1025829432       -0.0365816371
 C          1.7214108346        1.2699021434       -0.4576476225
 C          0.3436702978        1.3422931049       -0.4793978686
 C         -0.4171543261        0.2479440285       -0.0776922080
 N         -1.8344217391        0.3101223667       -0.0823502870
 C         -2.4966572161        0.4626482799        1.1281155913
 C         -1.7740975889        0.7023800474        2.2998936526
 C         -2.4212402786        0.8666177758        3.5075150779
 C         -3.8025542529        0.8063293526        3.5729057307
 C         -4.5243402276        0.5834267532        2.4151596092
 C         -3.8910980565        0.4138296934        1.1932923147
 C         -4.7263497257        0.1371817424       -0.0332023209
 C         -5.3772984138       -1.2296438736        0.0883122560
 C         -4.7655535192       -2.4596938607        0.1810731367
 C         -5.5639772174       -3.5899310071        0.2947822233
 C         -6.9461316417       -3.4827438725        0.3144342097
 C         -7.5654543330       -2.2466710782        0.2195841805
 C         -6.7740181038       -1.1159804407        0.1058640435
 C         -7.1243499000        0.2917809313       -0.0073191735
 C         -8.3556351047        0.9248760811       -0.0410061481
 C         -8.3880390967        2.3055272586       -0.1570962538
 C         -7.2152596818        3.0408113824       -0.2377604884
 C         -5.9779057153        2.4114429258       -0.2045074036
 C         -5.9407584687        1.0394455108       -0.0898079119
 C         -3.9194270167        0.2118825343       -1.3070350411
 C         -4.5843041343        0.1696298280       -2.5231307797
 C         -3.8929133000        0.1633240354       -3.7201652709
 C         -2.5090820597        0.1797631156       -3.7004921150
 C         -1.8300320952        0.2223848949       -2.4997844018
 C         -2.5224835269        0.2561111776       -1.2867868371
 C          0.2134386977       -0.9183010739        0.3450688754
 C          1.5905312071       -0.9913089790        0.3634873420
 N          4.3666781919       -1.1383122664        0.3321810204
 C          7.7359412345       -2.5196913699        0.7461685603
 C          8.3440106583       -3.7159119362        1.0737454704
 H          8.0521177654       -5.7685100128        1.6092713176
 H          5.5923980246       -5.6266887284        1.5263066050
 H          4.5016573536       -3.4808935724        0.9381079701
 H          4.9483417545        3.4168770899       -0.9566127372
 H          6.3128995424        5.4113023320       -1.5057466537
 H          8.7731954531        5.2685410942       -1.4424809188
 H          9.8723489135        3.1473658873       -0.8364558285
 H          8.4967596084        1.1588020698       -0.2914622495
 H          2.3256876643        2.1102175879       -0.7603544875
 H         -0.1560127302        2.2439058373       -0.8022102120
 H         -0.6971451634        0.7645154558        2.2600465462
 H         -1.8405650896        1.0475991554        4.3998052582
 H         -4.3131222995        0.9334571345        4.5149315738
 H         -5.6029519758        0.5355151745        2.4535158703
 H         -3.6884562388       -2.5440902236        0.1654229280
 H         -5.1032935799       -4.5641211268        0.3695967842
 H         -7.5477382312       -4.3756085475        0.4048987139
 H         -8.6425830968       -2.1686899684        0.2347303419
 H         -9.2716208059        0.3561030018        0.0218903886
 H         -9.3395595481        2.8165671830       -0.1850127504
 H         -7.2650541091        4.1160604011       -0.3275131060
 H         -5.0641418443        2.9844692105       -0.2671738992
 H         -5.6640955095        0.1334522094       -2.5245260986
 H         -4.4282642365        0.1322380466       -4.6564856090
 H         -1.9505948731        0.1565181705       -4.6245247288
 H         -0.7507806629        0.2221591275       -2.5002681524
 H         -0.3872186692       -1.7587235383        0.6603969037
 H          2.0945652938       -1.8885220497        0.6853656872
 H          8.3190573755       -1.6397830297        0.5247225174
 H          9.4216006887       -3.7807076536        1.1109743482
  80
       -125.54053769
 C          7.6459766451       -4.9506063433       -0.5121673826
 C          6.2745790711       -4.8536195400       -0.6894205527
 C          5.6412970386       -3.6350955929       -0.5413201988
 C          6.3813353053       -2.4996673246       -0.2171603296
 C          5.7139672271       -1.2062434286       -0.0709835797
 N          6.4715322247       -0.1239996077        0.0809413817
 C          5.8243500473        1.0334494999        0.1819633969
 C          6.6154462753        2.2513172242        0.3567639135
 C          5.9802949754        3.4778378938        0.5421064794
 C          6.7298492918        4.6257854982        0.7101411590
 C          8.1145511252        4.5607215120        0.6946172366
 C          8.7510207858        3.3429019317        0.5107277163
 C          8.0075840798        2.1909827736        0.3423439794
 N          4.4999052211        1.1509960981        0.1338342364
 C          3.8210617606        0.0156848539        0.0024275607
 C          2.3612981231        0.0895185670       -0.0311748032
 C          1.7233365340        1.3142600324       -0.2180265987
 C          0.3460425573        1.3816087151       -0.2569436722
 C         -0.4141572574        0.2261816996       -0.0915824130
 N         -1.8279315872        0.2777574435       -0.1253968292
 C         -2.5227411856        0.9514405876        0.8731368967
 C         -1.8410927837        1.6240760584        1.8909081743
 C         -2.5277941620        2.3131479520        2.8698466521
 C         -3.9113573730        2.3422775165        2.8646850900
 C         -4.5939002778        1.6435375997        1.8871507377
 C         -3.9204899009        0.9423763492        0.8979298933
 C         -4.7253678547        0.1160728751       -0.0751407496
 C         -5.4044594604       -1.0225431874        0.6653906180
 C         -4.8179556343       -2.0524090824        1.3665322210
 C         -5.6397577760       -2.9920384559        1.9745634179
 C         -7.0196171714       -2.8954762258        1.8784265725
 C         -7.6134020584       -1.8596943200        1.1747014249
 C         -6.7986358805       -0.9194771303        0.5662390598
 C         -7.1197001653        0.2597783527       -0.2235928593
 C         -8.3373534223        0.7946486252       -0.6100095096
 C         -8.3406896502        1.9488200682       -1.3773116675
 C         -7.1528254679        2.5583608389       -1.7516837409
 C         -5.9289945281        2.0265237040       -1.3673965529
 C         -5.9208764795        0.8795919286       -0.6049257288
 C         -3.8836281089       -0.4256155720       -1.2036674038
 C         -4.5151566254       -1.0455630200       -2.2716114053
 C         -3.7937289823       -1.5608618547       -3.3317361843
 C         -2.4150496908       -1.4376349480       -3.3323917840
 C         -1.7704468775       -0.8249986253       -2.2774077711
 C         -2.4903119423       -0.3312938014       -1.1857092862
 C          0.2224856348       -0.9985015674        0.0978769234
 C          1.5991156925       -1.0675619129        0.1208404969
 N          4.3842033694       -1.1840655265       -0.1013858580
 C          7.7598065231       -2.6017023250       -0.0419722972
 C          8.3861619763       -3.8241641834       -0.1877641815
 H          8.1388327568       -5.9048540374       -0.6285843819
 H          5.6999733389       -5.7327718327       -0.9421323945
 H          4.5754605822       -3.5395052970       -0.6772744612
 H          4.9020900124        3.5079355314        0.5560977914
 H          6.2364356994        5.5755933569        0.8559224580
 H          8.6982894040        5.4598390023        0.8281777810
 H          9.8301186564        3.2948809134        0.4998614212
 H          8.4849021907        1.2347661634        0.1963916887
 H          2.3248176463        2.2004081423       -0.3459686606
 H         -0.1532323922        2.3256585429       -0.4193283453
 H         -0.7630769041        1.5990191807        1.9236215174
 H         -1.9745180050        2.8275381211        3.6414919749
 H         -4.4528579514        2.8856369829        3.6234871649
 H         -5.6741225543        1.6272500827        1.8913503837
 H         -3.7427284582       -2.1265096448        1.4443024399
 H         -5.1993415332       -3.8073351062        2.5297481345
 H         -7.6395295827       -3.6378990256        2.3599667036
 H         -8.6887555911       -1.7883143915        1.1036862905
 H         -9.2650681348        0.3227658016       -0.3215999397
 H         -9.2811919774        2.3797259112       -1.6888876302
 H         -7.1800295411        3.4566386822       -2.3508852789
 H         -5.0033748977        2.5005152371       -1.6604855446
 H         -5.5927441793       -1.1223118497       -2.2650073134
 H         -4.3022772435       -2.0450305899       -4.1509965211
 H         -1.8340430461       -1.8158140613       -4.1603488324
 H         -0.6965658421       -0.7210700868       -2.3019007971
 H         -0.3751828364       -1.8900137111        0.2197099870
 H          2.1052191355       -2.0085130849        0.2683506988
 H          8.3191693604       -1.7143728403        0.2096086150
 H          9.4547129189       -3.9024698474       -0.0502974613
  80
       -125.54044055
 C          7.3745671666       -4.7613028159        1.9807559133
 C          6.0013462856       -4.5862340954        2.0549448006
 C          5.4238727974       -3.4265872649        1.5759103779
 C          6.2212174221       -2.4292741037        1.0173699698
 C          5.6113142076       -1.2017800945        0.5059556022
 N          6.4151766339       -0.2486024838        0.0427680226
 C          5.8183482080        0.8500189619       -0.4101877045
 C          6.6583885053        1.9238682410       -0.9403737127
 C          8.0468061301        1.8156120984       -0.8982943713
 C          8.8346374561        2.8307474076       -1.4050011567
 C          8.2466940649        3.9585295305       -1.9564217049
 C          6.8657855818        4.0708516998       -2.0007062717
 C          6.0722029641        3.0598093364       -1.4954831717
 N          4.5003454714        1.0311027819       -0.4157884406
 C          3.7729031864        0.0255645167        0.0605613057
 C          2.3183686074        0.1740709833        0.0610152736
 C          1.7382022897        1.3965949557       -0.2731213182
 C          0.3658675566        1.5355783436       -0.2843129594
 C         -0.4474377438        0.4491121735        0.0291801978
 N         -1.8580838086        0.5605307244        0.0119684075
 C         -2.5390193566        0.5302998677        1.2237283149
 C         -1.8394848004        0.6525392924        2.4264262196
 C         -2.5066809356        0.6395312774        3.6343614763
 C         -3.8850383629        0.5199503131        3.6685782333
 C         -4.5858336316        0.4177245964        2.4809369294
 C         -3.9315238854        0.4246658455        1.2589934205
 C         -4.7179495233        0.2501796328       -0.0170459895
 C         -5.0902137759       -1.2143595798       -0.1857400058
 C         -4.2518064523       -2.2981809909       -0.3210094537
 C         -4.8159865592       -3.5590598513       -0.4597014739
 C         -6.1925032574       -3.7234834700       -0.4629201814
 C         -7.0393591820       -2.6346455868       -0.3308147994
 C         -6.4821304288       -1.3743975371       -0.1926334287
 C         -7.0984391126       -0.0652416883       -0.0412179606
 C         -8.4294144192        0.3147163484        0.0069356944
 C         -8.7300360891        1.6590176884        0.1587672957
 C         -7.7226978110        2.6064495629        0.2609446658
 C         -6.3866001205        2.2315642341        0.2132489739
 C         -6.0824047176        0.8963378982        0.0610283583
 C         -3.9314622777        0.7018914698       -1.2245273886
 C         -4.5954544765        0.9470334553       -2.4162165682
 C         -3.9026678452        1.2376308263       -3.5770824316
 C         -2.5195343463        1.2485344582       -3.5519921274
 C         -1.8414224630        1.0128555558       -2.3727471799
 C         -2.5343212572        0.7660248508       -1.1858048881
 C          0.1308389925       -0.7693002655        0.3772300583
 C          1.5026387158       -0.9058378457        0.3944759031
 N          4.2845194750       -1.1081098333        0.5304475651
 C          7.6011316115       -2.6094089653        0.9466527179
 C          8.1720388478       -3.7720812522        1.4264807348
 H          7.8237468803       -5.6694692831        2.3556834544
 H          5.3823382234       -5.3573237781        2.4893533557
 H          4.3575909019       -3.2717309335        1.6273688015
 H          8.4865590883        0.9313347828       -0.4646709697
 H          9.9110695573        2.7463166165       -1.3708042060
 H          8.8653094061        4.7509677056       -2.3520780497
 H          6.4097412202        4.9502320555       -2.4314845813
 H          4.9961188681        3.1284688952       -1.5229295684
 H          2.3810783774        2.2289501700       -0.5123358291
 H         -0.0877772336        2.4853271802       -0.5266594334
 H         -0.7653574820        0.7613759132        2.4112388802
 H         -1.9444371386        0.7297653250        4.5518158419
 H         -4.4110704754        0.5081650647        4.6107454108
 H         -5.6616082446        0.3221812073        2.4974577774
 H         -3.1788498350       -2.1723360170       -0.3229710153
 H         -4.1750697727       -4.4220594706       -0.5665302312
 H         -6.6094644534       -4.7143473472       -0.5710239896
 H         -8.1110557195       -2.7679207881       -0.3354519155
 H         -9.2170896802       -0.4197486196       -0.0735094245
 H         -9.7627912240        1.9740012423        0.1971779697
 H         -7.9807694972        3.6486225351        0.3791805434
 H         -5.6018293365        2.9697046324        0.2939946352
 H         -5.6741831466        0.8949015989       -2.4328557540
 H         -4.4370493223        1.4294303118       -4.4945924617
 H         -1.9592421179        1.4397474622       -4.4552249534
 H         -0.7627149821        1.0081941332       -2.3778005051
 H         -0.5076002879       -1.6016548692        0.6359251276
 H          1.9637029253       -1.8448404884        0.6562646396
 H          8.2054898423       -1.8296357645        0.5108623772
 H          9.2423128427       -3.9101523561        1.3713537373
  80
       -125.54031494
 C          8.2183584720       -3.1140107026       -3.2803779190
 C          8.8077865875       -2.3240455670       -2.3054941151
 C          8.0214923647       -1.5752897470       -1.4517912628
 C          6.6335898132       -1.6114426567       -1.5701685949
 C          5.7977644729       -0.8219659468       -0.6657960176
 N          6.3973592596       -0.1512664048        0.3134317893
 C          5.6007964034        0.5488638346        1.1157127807
 C          6.2167497376        1.3152497569        2.1988594145
 C          5.4421039743        2.1712417544        2.9792856579
 C          6.0274714819        2.8967172776        3.9986090769
 C          7.3854544269        2.7738079904        4.2486405285
 C          8.1600704704        1.9229803985        3.4754288363
 C          7.5814478544        1.1959324388        2.4534258457
 N          4.2772638348        0.5947000127        0.9928157995
 C          3.7623845474       -0.1040230099       -0.0145409619
 C          2.3108567479       -0.0840901234       -0.1876079743
 C          1.7316770150       -0.6108746742       -1.3405363309
 C          0.3615547884       -0.5929919424       -1.5020957042
 C         -0.4513406327       -0.0607836645       -0.5038893091
 N         -1.8595534687       -0.0364975283       -0.6345725997
 C         -2.4856732419        1.1968671800       -0.7792087406
 C         -1.7348747400        2.3329693472       -1.0898065382
 C         -2.3458927770        3.5601349348       -1.2490291766
 C         -3.7187332533        3.6778039567       -1.1186720983
 C         -4.4707556745        2.5532488063       -0.8324108820
 C         -3.8728294997        1.3138957760       -0.6647029562
 C         -4.7117078897        0.1165788526       -0.2918012224
 C         -5.0562500570        0.1804172203        1.1877719732
 C         -4.1992692350        0.1574695904        2.2653015063
 C         -4.7390936308        0.2245591884        3.5426815761
 C         -6.1100388890        0.3128400622        3.7290869787
 C         -6.9754308179        0.3333734653        2.6470152626
 C         -6.4426303991        0.2655991002        1.3704783153
 C         -7.0821785461        0.2574329437        0.0636807309
 C         -8.4179755705        0.3195492574       -0.2967806191
 C         -8.7435173280        0.2888546523       -1.6435519456
 C         -7.7557735941        0.1981041364       -2.6125504862
 C         -6.4147682441        0.1365240910       -2.2572408630
 C         -6.0859507895        0.1661242822       -0.9195007606
 C         -3.9894514574       -1.1802334702       -0.5691803196
 C         -4.7119425406       -2.3617357851       -0.6238862725
 C         -4.0784167628       -3.5853360351       -0.7383738266
 C         -2.6958898001       -3.6286712228       -0.7630034334
 C         -1.9601034003       -2.4615221644       -0.7163644006
 C         -2.5928344855       -1.2186267826       -0.6493217724
 C          0.1274733277        0.4760662935        0.6443357677
 C          1.4966969887        0.4676987263        0.8003370058
 N          4.4833341149       -0.8203520529       -0.8715354271
 C          6.0459340436       -2.4063888467       -2.5523988105
 C          6.8380379151       -3.1539426045       -3.4017272203
 H          8.8355141790       -3.6998275327       -3.9459657842
 H          9.8840301070       -2.2949327517       -2.2127496505
 H          8.4620306683       -0.9529667055       -0.6888889768
 H          4.3875047995        2.2553033518        2.7687980031
 H          5.4263552417        3.5615743576        4.6015210348
 H          7.8407249589        3.3421591977        5.0465836379
 H          9.2176751972        1.8278109894        3.6732618637
 H          8.1679463932        0.5286045181        1.8417145828
 H          2.3737221664       -1.0186668706       -2.1053189373
 H         -0.0889119166       -0.9792352301       -2.4047235444
 H         -0.6654212678        2.2501015777       -1.2106891406
 H         -1.7441246285        4.4262340222       -1.4809562983
 H         -4.2006588563        4.6358419837       -1.2388458042
 H         -5.5427869616        2.6350870914       -0.7285555169
 H         -3.1310433828        0.0826138970        2.1226754211
 H         -4.0836455184        0.2058692646        4.4010950341
 H         -6.5079863016        0.3637817054        4.7322333092
 H         -8.0428279969        0.3988284785        2.7980097002
 H         -9.1904525728        0.3903435474        0.4546660748
 H         -9.7804281564        0.3360903701       -1.9432086834
 H         -8.0331626826        0.1746378297       -3.6562049606
 H         -5.6451813440        0.0662729970       -3.0123170473
 H         -5.7892876132       -2.3179392569       -0.5597333509
 H         -4.6576839578       -4.4946735682       -0.7805298990
 H         -2.1810371894       -4.5765058425       -0.8146486192
 H         -0.8830338033       -2.5188287775       -0.7170247365
 H         -0.5095375436        0.9014680771        1.4061583473
 H          1.9569395198        0.8733831048        1.6872218741
 H          4.9701402385       -2.4267983131       -2.6297355129
 H          6.3813154767       -3.7708189036       -4.1617912907
  80
       -125.54021022
 C          8.1992333198       -3.2018200406       -3.2109863568
 C          8.7915125576       -2.3997784990       -2.2479974267
 C          8.0082412744       -1.6312344258       -1.4092656058
 C          6.6206386773       -1.6600280534       -1.5305637679
 C          5.7879943426       -0.8483118849       -0.6431630563
 N          6.3882582233       -0.1696704669        0.3297830793
 C          5.5937751043        0.5498369140        1.1173306304
 C          6.2119968787        1.3315719822        2.1883145725
 C          5.4350935435        2.1840569022        2.9706083307
 C          6.0227281087        2.9271982534        3.9755451223
 C          7.3854889092        2.8260648831        4.2095810697
 C          8.1621111462        1.9783111490        3.4352192808
 C          7.5810475228        1.2333130207        2.4274476442
 N          4.2714049465        0.6040821407        0.9881823065
 C          3.7558331170       -0.1015522898       -0.0143745759
 C          2.3057889618       -0.0690975116       -0.1970261896
 C          1.7314099805       -0.5809559167       -1.3587951050
 C          0.3626637783       -0.5538108566       -1.5294695288
 C         -0.4546100365       -0.0310111028       -0.5300677467
 N         -1.8622077578       -0.0092371302       -0.6645183904
 C         -2.4947175085        1.2236758035       -0.7853181934
 C         -1.7510301735        2.3678013835       -1.0831012341
 C         -2.3689903689        3.5942191925       -1.2191600629
 C         -3.7415063056        3.7029332839       -1.0779116508
 C         -4.4866604406        2.5706298283       -0.8043269074
 C         -3.8816472046        1.3319755081       -0.6600977999
 C         -4.7096920837        0.1233183938       -0.2994391326
 C         -5.0221685619        0.1509296095        1.1885752595
 C         -4.1425444222        0.1069137603        2.2471705831
 C         -4.6552581968        0.1464410607        3.5366687666
 C         -6.0221634060        0.2279115684        3.7542997207
 C         -6.9103556222        0.2682260199        2.6915751325
 C         -6.4044202853        0.2282190626        1.4029297994
 C         -7.0721376315        0.2474803603        0.1105380995
 C         -8.4156651019        0.3122191724       -0.2191111988
 C         -8.7705948218        0.3116624128       -1.5588442051
 C         -7.8039510849        0.2483915192       -2.5509228976
 C         -6.4551940300        0.1839198654       -2.2264813447
 C         -6.0971949349        0.1827554584       -0.8959018279
 C         -3.9874029057       -1.1623036533       -0.6248593381
 C         -4.7071185077       -2.3430638397       -0.7184512987
 C         -4.0706422712       -3.5603220255       -0.8759802762
 C         -2.6881001515       -3.5993963341       -0.9012429497
 C         -1.9552045081       -2.4326125000       -0.8163796100
 C         -2.5908475969       -1.1939886042       -0.7106675988
 C          0.1200607936        0.4943870217        0.6253666001
 C          1.4884572648        0.4797697291        0.7891663925
 N          4.4747940574       -0.8343992055       -0.8586789941
 C          6.0297757912       -2.4679630039       -2.5002512425
 C          6.8188778777       -3.2346704415       -3.3348769175
 H          8.8134808311       -3.8033394918       -3.8648197986
 H          9.8671532006       -2.3752955884       -2.1532315549
 H          8.4509504332       -0.9997524677       -0.6553027809
 H          4.3772343916        2.2526670744        2.7716411477
 H          5.4199580990        3.5895875919        4.5795158414
 H          7.8420801932        3.4090007626        4.9961384635
 H          9.2237105079        1.9004573560        3.6188080110
 H          8.1696779321        0.5675955419        1.8159370748
 H          2.3761411400       -0.9843711716       -2.1232331731
 H         -0.0833325583       -0.9254597385       -2.4402290939
 H         -0.6820105091        2.2912585488       -1.2122036066
 H         -1.7734075213        4.4668737492       -1.4425250283
 H         -4.2287451384        4.6602378650       -1.1802733158
 H         -5.5583030995        2.6459354192       -0.6924419209
 H         -3.0773167160        0.0379349747        2.0811044386
 H         -3.9816822268        0.1123682991        4.3804939835
 H         -6.3981883970        0.2579070724        4.7666416384
 H         -7.9744391159        0.3284676016        2.8656675531
 H         -9.1717224265        0.3620784561        0.5504154354
 H         -9.8140847277        0.3612921150       -1.8344919233
 H         -8.1036275167        0.2494676401       -3.5886301604
 H         -5.7023995714        0.1352210691       -2.9997950246
 H         -5.7844460308       -2.3043863386       -0.6512399297
 H         -4.6473434585       -4.4691112679       -0.9513476727
 H         -2.1707478231       -4.5434677453       -0.9858500822
 H         -0.8781941743       -2.4882117405       -0.8173033138
 H         -0.5191599532        0.9152733697        1.3872625952
 H          1.9448713125        0.8752171465        1.6822150059
 H          4.9540267737       -2.4839098322       -2.5786826429
 H          6.3600046422       -3.8625768489       -4.0845367303
