90
 energy: -133.806312923680 gnorm: 0.000053213485 xtb: 6.7.1 (edcfbbe)
C            9.42910013001963       -2.49622661941047       -0.88198050223090
C            8.89849597195251       -1.51592151570716        0.18109571817635
C            9.93868280379685       -1.33155813356377        1.30206334165582
C            8.65135505232472       -0.17602576499202       -0.48058569589044
C            9.70304380826842        0.48989570863834       -1.09449974804586
C            9.52856105218649        1.70236683630566       -1.73561995476548
C            8.26562898679661        2.26922450512404       -1.78541274929664
C            7.20377956819391        1.63228581829038       -1.18314882722836
C            7.38101171172895        0.41637247382660       -0.50962640305391
N            6.29960741398580       -0.19030236338619        0.09733599459245
C            5.03512184578227        0.46294885719611        0.07107457499526
C            4.79918693184815        1.56147186299645        0.89296101748364
C            3.56651903837280        2.17661988138878        0.88250480793019
C            2.53644861804917        1.71046701151931        0.05693839625457
C            1.23250122929783        2.35952370559173        0.06360666882527
C            1.15229155901494        3.73346666776438        0.07250125508668
N           -0.00023166420772        4.39680645652715        0.02774542643522
C           -1.15210193557538        3.73327326807636       -0.02579950642063
C           -1.23130494260466        2.35918198446644       -0.03497541187504
C           -2.53465416994501        1.70929076310774       -0.03442034820283
C           -3.56706107554176        2.18587191582109       -0.85123584685369
C           -4.79965274379317        1.57081167611946       -0.86627284369934
C           -5.03352465125804        0.46176711379929       -0.05786842643530
N           -6.29849975034443       -0.19002299217793       -0.08781196251145
C           -7.37906182936522        0.41411266447703        0.52343063240221
C           -7.20017200793610        1.62505646416628        1.20546407358360
C           -8.26123177156008        2.25976789873543        1.81144573231949
C           -9.52512056109297        1.69547647975315        1.75720987373974
C           -9.70113486317954        0.48729605113532        1.10848962240731
C           -8.65022476705775       -0.17634444267772        0.49075901200922
C           -8.89906286707024       -1.51227921409310       -0.17819230787620
C           -9.93922002547677       -1.32077742138273       -1.29798763466806
C           -9.43060360536457       -2.49760070392775        0.87977307278705
C           -7.63532454472002       -2.08454402752521       -0.78684616600000
C           -7.68392792817203       -3.30888770414288       -1.43920222925306
C           -6.56758878056837       -3.86699915692418       -2.03375492605722
C           -5.36330319323001       -3.18346223631672       -1.99510142283869
C           -5.28504701094392       -1.96652121343102       -1.35564623860880
C           -6.40837454226062       -1.40873234225237       -0.73094610823422
C           -4.02370551588970       -0.01041781720671        0.77583771141139
C           -2.79227533295769        0.60687741536119        0.78808441847469
C            0.00100072810657        1.61469048386550        0.00886943136183
C            0.00137747155861        0.23545503643360       -0.00178278959273
N            0.00130023817605       -0.92593627753336       -0.01052986711620
C            2.79643053912060        0.61920042423674       -0.77942078255247
C            4.02792238767299        0.00182225939803       -0.77178851367789
C            6.40768496623172       -1.41287003521028        0.73322022685011
C            5.28298219710149       -1.97347639072591        1.35287260879239
C            5.35955775664095       -3.19399185524109        1.98568625647555
C            6.56340537694910       -3.87841100330772        2.02237818970901
C            7.68086383260106       -3.31801314479218        1.43205948407686
C            7.63396197520966       -2.09010203708269        0.78633558682589
H           10.34819200740347       -2.12575979731603       -1.32699900558090
H            9.63119303017205       -3.46973057626594       -0.44455532358653
H            8.69067502059646       -2.62082955638988       -1.67170036118762
H           10.15580812105421       -2.27827049518175        1.78843279718924
H            9.55725495684165       -0.64021245175942        2.05114291404466
H           10.86767749261062       -0.93086339509980        0.90641376048010
H           10.69018301620186        0.05369345362432       -1.07706318034266
H           10.36889976381171        2.19463671844202       -2.20042521942948
H            8.10673674932815        3.20648608920593       -2.29676164511503
H            6.21954725735943        2.07022818551263       -1.23497374435239
H            5.58525507429148        1.91458186252680        1.54490981690732
H            3.38093065508831        3.01155714802009        1.54190975797282
H            2.04508264683511        4.34294809566995        0.06456669933702
H           -2.04538507937816        4.34186049895030       -0.00908065151828
H           -3.38331438996402        3.02922415662309       -1.50036485571123
H           -5.58747169365736        1.93226652570293       -1.51151146897772
H           -6.21525280560643        2.06093157876747        1.26116089232843
H           -8.10093027146298        3.19326711271909        2.32919602274916
H          -10.36490968983068        2.18618118178425        2.22465092034814
H          -10.68888858653940        0.05262491415198        1.08804925198334
H          -10.86763707973165       -0.92095414787833       -0.90010893997092
H          -10.15764533132026       -2.26467341989312       -1.78922525778371
H           -9.55702735604324       -0.62605141183403       -2.04353843871707
H           -8.69221338407948       -2.62714910593933        1.66872887125057
H           -9.63382156760866       -3.46857086666609        0.43727244169591
H          -10.34923048096176       -2.12848134976247        1.32686962243678
H           -8.61831610830300       -3.84692287373874       -1.48964877479301
H           -6.63978245408382       -4.82281723482287       -2.52953518584599
H           -4.48366406911489       -3.59614423959792       -2.46456489069425
H           -4.34631920668575       -1.43643746652697       -1.33718384837816
H           -4.21501398628917       -0.86281468937630        1.41103439991813
H           -2.02212972335358        0.24175719069994        1.44870752860715
H            2.02809953183106        0.26265681471384       -1.44679723197278
H            4.22104233202062       -0.84235725497924       -1.41731167838647
H            4.34456345049622       -1.44279314534883        1.33555296311745
H            4.47896205940770       -3.60880709033267        2.45146524863032
H            6.63431770043326       -4.83690708237706        2.51314954597547
H            8.61472805567153       -3.85714216776957        1.48052174890845
