90
 energy: -133.882682777207 gnorm: 0.000066826640 xtb: 6.7.1 (edcfbbe)
C            9.40038134939169       -2.40614180939441       -1.00091530590473
C            8.81564802067351       -1.55283500437419        0.13949364704511
C            9.78854192497555       -1.51710791895078        1.33224132221516
C            8.61607598772453       -0.13883250573281       -0.37099582919575
C            9.70934270545351        0.57773550728136       -0.83837312376980
C            9.58722660793221        1.85820091574947       -1.34466696756987
C            8.33530085182883        2.44235076759091       -1.40693408913821
C            7.23258453553693        1.75361658759306       -0.94783860810988
C            7.35737325972734        0.47000034106539       -0.40768098051663
N            6.23132454048178       -0.19354901297462        0.05706848577945
C            4.98022049499278        0.47123360126062        0.03232985071484
C            4.71768673784590        1.49913099897588        0.93225781297201
C            3.49721273774903        2.14331346536497        0.91103316410409
C            2.51147233198227        1.75987038749434        0.00376255221757
C            1.21347025543057        2.44397267131664        0.00141664207412
C            1.13563591074236        3.83625364681838        0.00431241060052
N            0.00118496637805        4.50837373413489       -0.01778882575296
C           -1.13375033296651        3.83693498222011       -0.03528991579655
C           -1.21266265030203        2.44474657866972       -0.02385045475724
C           -2.51132866867706        1.76194461153023       -0.01866321070331
C           -3.50099682856841        2.14309805666811       -0.92261133491958
C           -4.72255820605643        1.50057216249405       -0.93508799997556
C           -4.98141889768737        0.47625722427738       -0.03021441671956
N           -6.23269064118499       -0.18917801594724       -0.04736798809011
C           -7.35355904053115        0.46752184671903        0.43834998833625
C           -7.22382633901904        1.74664170321148        0.98778743262616
C           -8.32140843447552        2.42814703254389        1.46949308781364
C           -9.57259279816319        1.84114019088772        1.42032312811713
C           -9.69936034756464        0.56561716019181        0.90268097941402
C           -8.61141054602982       -0.14364708307831        0.41242454155554
C           -8.81517627126311       -1.55211546273052       -0.11174929064479
C           -9.80366435016691       -1.50426496389722       -1.29116959248822
C           -9.38360746504538       -2.41985144787593        1.02600390735073
C           -7.51690890672688       -2.16991248492763       -0.59489532628897
C           -7.52655715514328       -3.45919166693085       -1.11006634693635
C           -6.38176729346170       -4.06716816217991       -1.58995272205672
C           -5.18849430239075       -3.36836822370538       -1.57307243507584
C           -5.15030748936102       -2.08636434462613       -1.06683516169764
C           -6.30178747177021       -1.47880441261267       -0.55773437841832
C           -4.00525231565720        0.10775491882183        0.88917446187530
C           -2.77911149333401        0.74183634848172        0.89148331154428
C            0.00015294075251        1.73744073421616       -0.00949386073024
C            0.00030663927078        0.32109153207333       -0.00593457835328
N            0.00154593987220       -0.82557629519511       -0.00342054410376
C            2.78242078391258        0.73576091654726       -0.90088469149134
C            4.00793491227270        0.10056151634501       -0.89044895478498
C            6.29666098145360       -1.48858328227383        0.55476299692714
C            5.14088942043021       -2.10313934116332        1.04546480013288
C            5.17534490276715       -3.39074021373305        1.53758832820175
C            6.36913410261209       -4.08853527019391        1.55889156671326
C            7.51822849207497       -3.47344239206706        1.09890848393831
C            7.51238992642948       -2.17827527154578        0.59858100642269
H           10.34812393116447       -2.00035485319623       -1.34372177718683
H            9.56660723352374       -3.42897598376564       -0.67456476311102
H            8.70957052893835       -2.42210282725236       -1.84193031257768
H            9.97376893020435       -2.51778491420890        1.71258626059893
H            9.36584975959858       -0.91739938647514        2.13631042775302
H           10.74101487968436       -1.08123174224914        1.04365760685556
H           10.68971799881912        0.12662850517953       -0.81107091725920
H           10.45919115623989        2.38821493710010       -1.69623643570313
H            8.21253104409991        3.43409507787110       -1.81625356516964
H            6.25805276715225        2.21253761332925       -1.01455920087776
H            5.47684566291251        1.78647301660507        1.64442145098878
H            3.29130398950770        2.93083885830815        1.62114631470665
H            2.03800680306965        4.43294318872565        0.00373581998162
H           -2.03568089739507        4.43428223324386       -0.03777591238836
H           -3.29754686706542        2.92739249431424       -1.63699367685214
H           -5.48504289694086        1.78610758428190       -1.64440972718957
H           -6.24939038168633        2.20735817303799        1.04341548200387
H           -8.19531120790586        3.41644478902659        1.88608806661085
H          -10.44050903229591        2.36535162923063        1.79016104255030
H          -10.67912340718491        0.11268853448990        0.88473928203298
H          -10.75243670406925       -1.07200464278614       -0.98543883777021
H           -9.99343768546420       -2.50097851343450       -1.67960511135179
H           -9.39188018318992       -0.89580143204674       -2.09432126995487
H           -8.68265709812788       -2.44315105487235        1.85841060191453
H           -9.55077003074447       -3.43947803440403        0.69021291805192
H          -10.32833763863834       -2.02080577370382        1.38467793203458
H           -8.45434114981730       -4.01022304716608       -1.14228520238670
H           -6.42459044447117       -5.07244087516947       -1.98044057772051
H           -4.28385750141449       -3.81652622758378       -1.95558642614740
H           -4.21545514929670       -1.54750314422608       -1.06941378595580
H           -4.21297003402251       -0.68210066179788        1.59511431322636
H           -2.03249320870123        0.45762161220508        1.61785864625596
H            2.03897131775072        0.44948562492797       -1.62969914806666
H            4.21816279624264       -0.69181602751054       -1.59282012162495
H            4.20543045979131       -1.56538098696926        1.04524640988686
H            4.26736161888420       -3.84405646376918        1.90580875334470
H            6.40903799942110       -5.09825271564635        1.93805548327677
H            8.44649361469761       -4.02340189727782        1.13522182670360
