90
 energy: -133.807519800735 gnorm: 0.000120294608 xtb: 6.7.1 (edcfbbe)
C            9.23614597717600       -2.10276175100859        1.95888194732893
C            8.82986868751523       -1.41309040968762        0.64287973020921
C            9.98815256182940       -1.47484554000807       -0.37059898690772
C            7.63769988933338       -2.14212771516548        0.05767341570045
C            7.75061467012951       -3.48662092632650       -0.26871547060656
C            6.70333727954814       -4.19517833767835       -0.82766615093423
C            5.50620021502614       -3.54813349217748       -1.08695993912070
C            5.36525703888425       -2.21445859664041       -0.77477015910586
C            6.41639329570827       -1.49877597648378       -0.18654652738778
N            6.24416863301404       -0.16276692977788        0.12396103782223
C            4.99156548589841        0.45363722437786       -0.15211247030281
C            4.86414271749539        1.32080535308860       -1.23405733607262
C            3.64766136359583        1.90338138236280       -1.51129650480297
C            2.52349983269133        1.63646166403463       -0.71884617840331
C            1.23579300427939        2.23745473506721       -1.02259016358112
C            1.15398468120409        3.53924048777129       -1.46520794981140
N            0.00069445932652        4.16820179686853       -1.66982205524276
C           -1.15237780295041        3.53954434954604       -1.46560307378944
C           -1.23480487680732        2.23731555983365       -1.02363003447163
C           -2.52234435003837        1.63729591161989       -0.71923321992989
C           -3.64748417164564        1.90597940991166       -1.51011383472696
C           -4.86385120957519        1.32377603540339       -1.23238121697524
C           -4.99097843765427        0.45494427350681       -0.15143590220580
N           -6.24324346763977       -0.16110118273246        0.12483857704863
C           -7.25922563632539        0.60044173435418        0.66771784185313
C           -7.01885469426228        1.94117351588125        0.99680506784497
C           -8.01597778110322        2.73055121759641        1.52462557165011
C           -9.27508909921261        2.19666024253069        1.74436036514468
C           -9.50878424410964        0.86665249605995        1.44779938661418
C           -8.52271175449894        0.04656795886225        0.91712283534210
C           -8.83000318661842       -1.41078849092948        0.64192867027404
C           -9.98082217444670       -1.49120605134874       -0.37870329832316
C           -9.24359905801750       -2.08181217708997        1.96529390933000
C           -7.63170144671629       -2.14480828618102        0.07590401002974
C           -7.73930378104142       -3.49404117644679       -0.23234542393941
C           -6.68715555274341       -4.20757579303935       -0.77549568722207
C           -5.49072205012860       -3.56062201687487       -1.03812961622171
C           -5.35497481932627       -2.22240744084316       -0.74354587961471
C           -6.41051674482498       -1.50167386623060       -0.16948171895229
C           -3.88603388166980        0.18846019670295        0.65297731221785
C           -2.67132139827073        0.77306218889512        0.37308600966109
C            0.00064493148435        1.51600408071973       -0.84630868788982
C            0.00075596865902        0.14578412847238       -0.68791300075126
N            0.00067224825721       -1.00611757253587       -0.54229630970253
C            2.67270195513744        0.77338330463861        0.37410548163739
C            3.88752902032283        0.18853667804750        0.65366608123839
C            7.25404283265211        0.59393179733202        0.68413979268580
C            7.00842137080981        1.93043464957209        1.02614695658761
C            7.99906971237413        2.71473403183004        1.57337144593784
C            9.25669090349435        2.17985616348282        1.79926088692056
C            9.49593071642818        0.85427768982354        1.48752923550744
C            8.51651091022176        0.03931389229867        0.93707604012559
H            9.48261872381569       -3.14689624559795        1.78885333673302
H           10.10127204254419       -1.61667584599748        2.40078885794728
H            8.41418501427159       -2.05507838912881        2.67062148235468
H           10.86923689919327       -0.97127363798894        0.01705560002187
H            9.69434400459429       -0.98829161668427       -1.29877411255763
H           10.25407652331072       -2.50438467419404       -0.59263609906719
H            8.68167446939415       -4.00112520261994       -0.08556894415429
H            6.82418330075758       -5.24072366948472       -1.06606562246401
H            4.68123100588014       -4.08031702360028       -1.53487402869200
H            4.43358807268067       -1.71538833760097       -0.98815505473096
H            5.72393018826406        1.51908642690804       -1.85780894437461
H            3.55107953852557        2.55034065978180       -2.37025066699375
H            2.04268089077885        4.14012698541161       -1.59838733808361
H           -2.04089717636741        4.14098272174958       -1.59759459458167
H           -3.55146541670419        2.55381249286898       -2.36846986912559
H           -5.72404644344135        1.52326146703949       -1.85521466886762
H           -6.03617050985307        2.35705735457246        0.84015954182095
H           -7.80910199987474        3.76165289251588        1.76802539768095
H          -10.06554820918282        2.80710140362194        2.15311099656406
H          -10.49042610230884        0.46090020713077        1.63952899986609
H          -10.86587271042977       -0.98381522535177       -0.00535334289559
H          -10.24279732055048       -2.52472033134671       -0.58647916181905
H           -9.68145362494531       -1.01855289336428       -1.31226768494406
H           -8.42706899572955       -2.02037199117848        2.68222010447103
H           -9.48521709380623       -3.12928404145830        1.80941733606331
H          -10.11359707226665       -1.59207245932863        2.39339616628031
H           -8.67011949271187       -4.00831962800112       -0.04736689457560
H           -6.80388301241730       -5.25669546124058       -0.99981143165075
H           -4.66221238221523       -4.09633551636529       -1.47515746890434
H           -4.42384389338017       -1.72389706981468       -0.96039842075115
H           -3.99213521058037       -0.47812456845970        1.49630794061745
H           -1.82590180934224        0.57035957590223        1.01170752878871
H            1.82760800651411        0.57167909181535        1.01348007358400
H            3.99416661559414       -0.47734295985811        1.49746298399460
H            6.02684158344854        2.34677143292312        0.86370401332244
H            7.78840121754191        3.74262911061823        1.82687886026835
H           10.04196120137027        2.78627807875127        2.22370398475566
H           10.47666083129089        0.44804456341998        1.68290176913526
