70
 energy: -108.142893064667 gnorm: 0.000067855651 xtb: 6.7.1 (edcfbbe)
C            9.58476396339698       -2.90878340134743        1.21804696959321
C            8.48384826973547       -3.57148743502231        0.70119847782127
C            7.30598056284437       -2.88712404679991        0.46857456992787
C            7.20958378322585       -1.52382446502132        0.74321479064038
C            5.96106137863351       -0.79465278753524        0.48565220435205
C            4.72600099186936       -1.38304092598154        0.79679199466296
C            3.52835876694128       -0.74292672719336        0.55934664460543
C            3.56637258086030        0.51792139511012       -0.02491332690991
C            4.80388609401226        1.14124915046329       -0.31871738495426
C            5.99450610431223        0.48416354864208       -0.06305731430177
C            4.48640190317260        2.43394833677676       -0.86212934959381
C            5.25538334217135        3.48520729316231       -1.33813120132182
C            4.61194561710248        4.60757881528848       -1.82593630693188
C            3.22137660567712        4.67994735218341       -1.85733742507590
C            2.43401629217551        3.64530313253861       -1.38832605001504
C            3.07412990438830        2.52681721286330       -0.87178779539058
N            2.53529803567415        1.36345698189033       -0.36154454515562
C            1.16858130890097        1.07996236313803       -0.23768458504210
C            0.64795826260685       -0.12515672778307       -0.71972045181930
C           -0.69026879149996       -0.39613334586834       -0.60302288417082
C           -1.58175620242367        0.52715113100191       -0.01419239389405
C           -2.97216976490335        0.20082773302251        0.06021678914035
C           -3.98161691305480        1.07665450537309        0.49303822883410
C           -5.29234696867235        0.63271792115538        0.49389642294458
C           -6.43285580227994        1.43156496322190        0.88793964754220
C           -7.70068532143250        0.83030285872002        0.92784686417749
C           -8.81683259244806        1.55003354097754        1.29253518927237
C           -8.70677935527408        2.89130740698285        1.62847240642541
C           -7.46135425802428        3.50085096634850        1.59265787030471
C           -6.33882952795424        2.78737755006899        1.22846815261393
N           -5.54799464923523       -0.65016321199120        0.09281362647579
C           -4.58532033243843       -1.46291496918087       -0.29476902991317
C           -4.91340380503011       -2.82929745974965       -0.69628214334895
C           -3.89966201383143       -3.73136783000113       -1.01075404787643
C           -4.21219459609365       -5.02379800024678       -1.38419247739852
C           -5.53675021181701       -5.42789076161723       -1.44810761392595
C           -6.54996736846231       -4.53475107086463       -1.13706007658839
C           -6.24220956193720       -3.24133354338957       -0.76212409072119
N           -3.34312827223159       -1.05677281331777       -0.32578565419200
C           -1.03738194870275        1.73218308562212        0.47212113914731
C            0.30552084874290        1.99864309656663        0.36531756088517
C            8.32517551468864       -0.86740832940687        1.26052290870543
C            9.50016374903209       -1.55499979872715        1.49826436947857
H           10.50422525174947       -3.44476514763674        1.40148647660258
H            8.54521980687953       -4.62643700025099        0.47602001843077
H            6.45714709048678       -3.40627734975853        0.04766012591668
H            4.71766161694258       -2.35785687289596        1.26129377484063
H            2.59100296959006       -1.20327542702584        0.83179720992177
H            6.93719216908536        0.94927707787806       -0.30870845523472
H            6.33308258271341        3.42282148022284       -1.33109380777031
H            5.19235286406081        5.43814047279110       -2.19889193168471
H            2.74756560045655        5.56230307639272       -2.26111931746184
H            1.35737038802494        3.70131238182078       -1.43490294401838
H            1.30682928824454       -0.82789377309071       -1.20870312835878
H           -1.09574133433660       -1.32059383371531       -0.98462928897507
H           -3.73628063053087        2.07606618458171        0.80786004114909
H           -7.78128759683901       -0.21457457501617        0.66859715256793
H           -9.78274135244506        1.06584478697016        1.31650930012180
H           -9.58128305697785        3.45667968896369        1.91367200388784
H           -7.36764685243741        4.54630722370325        1.85026432633042
H           -5.38579850668624        3.29293209994090        1.20266289120496
H           -2.87314927255717       -3.40283598324372       -0.95266565243290
H           -3.42349339205802       -5.72120142336011       -1.62582208917019
H           -5.77911145913917       -6.43920444367266       -1.73997306428792
H           -7.58164124772026       -4.85060415890715       -1.18772369890818
H           -7.02008420863439       -2.53379425622063       -0.51879756098786
H           -1.67149489399030        2.45823520651012        0.95601168251091
H            0.70994886297101        2.91486194022502        0.77053403119470
H            8.26057695056476        0.18443920601344        1.49858862240316
H           10.35416216328549       -1.03373585374314        1.90612761513687
