70
 energy: -108.143031543561 gnorm: 0.000063848231 xtb: 6.7.1 (edcfbbe)
C            9.51136962677431       -2.82171401354934        1.77242925905695
C            8.42469822932187       -3.54439372712208        1.30852202369772
C            7.26231480110246       -2.89373907997702        0.94053046119538
C            7.16759008338197       -1.50550239975812        1.02425841829998
C            5.93471744709183       -0.81211947207742        0.62903297774118
C            4.68531579994140       -1.34885310440997        0.97451743054456
C            3.50173728397742       -0.73464786764745        0.62476489715180
C            3.57038195643089        0.44466526517889       -0.10772897090255
C            4.82177541439823        1.01385943733831       -0.44877423725595
C            5.99748689338211        0.38448820813186       -0.07956839808088
C            4.53219184160285        2.23245307240177       -1.15513997657560
C            5.32282443891026        3.20815616922555       -1.74330636920753
C            4.70237451765457        4.26950063779391       -2.37621619543876
C            3.31354985576606        4.35563448568002       -2.43836232678096
C            2.50460862603070        3.39601642276244       -1.85951228736678
C            3.12171181204860        2.34041023971160       -1.20210527736977
N            2.55809842155860        1.25442563873883       -0.56556124793278
C            1.18534700658752        1.01261089251910       -0.41651682218357
C            0.63873374026947       -0.22178469928675       -0.78063678930274
C           -0.70378034749009       -0.45319644882561       -0.63287471229418
C           -1.57177528224959        0.53504714156457       -0.11810199831816
C           -2.96425332692997        0.23811903315681        0.01089885326809
C           -3.92609890629966        1.11042190240458        0.54892291229992
C           -5.24221188982263        0.68998971666291        0.61644117356744
C           -6.33525337802250        1.48773124052536        1.13087336525504
C           -6.15133686839212        2.73184669686226        1.74799451374318
C           -7.23041825383797        3.44958368507819        2.21957466984573
C           -8.51968376720057        2.95407473151125        2.09297706329061
C           -8.71797812229981        1.72208580763439        1.48736469952451
C           -7.64561159928021        0.99863294824473        1.01436201732715
N           -5.55503470889172       -0.55885987530117        0.15443380905680
C           -4.63618460825886       -1.37013205309205       -0.33154088510982
C           -5.02416034655201       -2.70077227271981       -0.79494746406231
C           -6.34084891410803       -3.13388306650596       -0.65790376000477
C           -6.70705721662743       -4.39171722138118       -1.09591870614553
C           -5.76488252700945       -5.22776062744287       -1.67421018811885
C           -4.45270976501312       -4.80262316836690       -1.81307239661050
C           -4.08180221659277       -3.54605218905019       -1.37607609350655
N           -3.38732428733262       -0.99212185231565       -0.40867399444827
C           -1.00117100700566        1.77156774013849        0.24392735896853
C            0.34441885292363        2.00277490698972        0.09728300874996
C            8.26906968990468       -0.78900833345084        1.48966102617678
C            9.42840582158477       -1.44210162967379        1.86280150356827
H           10.41841308879260       -3.33120824516499        2.06229844369047
H            8.48503296267953       -4.62039946967560        1.23137638882158
H            6.42516619096124       -3.46231594374999        0.56225662807952
H            4.65361201713125       -2.25740417063989        1.55725892567385
H            2.55154060626651       -1.15014450697483        0.92378573786528
H            6.95176629111678        0.80667978600805       -0.35609237139055
H            6.39935561238200        3.13467153120902       -1.71036894354659
H            5.30010189787975        5.04046133200695       -2.83900639159507
H            2.85874427418261        5.18839183142611       -2.95387788009393
H            1.42936978698169        3.45939235414175       -1.92693602770314
H            1.28195851162888       -0.98106320864252       -1.20139991645277
H           -1.12978997023199       -1.40235919036180       -0.91961780209260
H           -3.64072518042931        2.08857735205692        0.89493403196157
H           -5.16001515122714        3.14037772479647        1.87024588280122
H           -7.06715667362880        4.40681984100327        2.69405730190256
H           -9.35962322180599        3.52172178497389        2.46450434131120
H           -9.71846111349822        1.32635172875131        1.38543102758086
H           -7.79574239356352        0.04100813565330        0.53913934739821
H           -7.06240815186222       -2.47222751360513       -0.20346514560898
H           -7.72898545828014       -4.72427271052547       -0.98749551297147
H           -6.05295582867371       -6.21081982674429       -2.01667457587546
H           -3.71945312366239       -5.45511868152611       -2.26405822507848
H           -3.06449285280384       -3.20052170854619       -1.47888062488200
H           -1.61840579815707        2.55770566313922        0.64908742073093
H            0.76848215540357        2.94918023027002        0.40042063266388
H            8.20474073623265        0.28559960433585        1.58084414984441
H           10.27107227155724       -0.87332070346210        2.22858130793292
