70
 energy: -108.217935436366 gnorm: 0.000036466327 xtb: 6.7.1 (edcfbbe)
C            9.44616024470659       -2.17737381470517        2.53337146631021
C            9.34849478233319       -0.82998066051557        2.22901208141158
C            8.19025663726492       -0.32574443758182        1.66786753963602
C            7.10639236541212       -1.16033351519319        1.40439044109490
C            5.87319539695616       -0.62331598923957        0.80970112283683
C            4.62454126305060       -1.04623183259326        1.28548493381912
C            3.44010525428367       -0.57200930898935        0.76044746943342
C            3.50916147533026        0.34066296112342       -0.28246687644750
C            4.75785305917791        0.79733161789463       -0.76152478308395
C            5.93565166531247        0.31273979458233       -0.21443453063559
C            4.47310090029506        1.75865973979599       -1.79071052080795
C            5.27257942742256        2.52194332891024       -2.63071706789427
C            4.66259543532235        3.35254281263440       -3.54944332403326
C            3.27449767196370        3.41488674068753       -3.64699369662394
C            2.45811039805833        2.66491371969686       -2.82190966115638
C            3.06509782633969        1.84809257456693       -1.87899996721068
N            2.49427968370327        0.98475386725514       -0.96281137707393
C            1.12431334341467        0.79402286766053       -0.75590165797765
C            0.59033756112943       -0.49305360125454       -0.72616692563254
C           -0.75931146542564       -0.67595798223981       -0.51583648258205
C           -1.60725409216419        0.41481498503318       -0.32621791093195
C           -3.03773579165614        0.17774133879993       -0.10122416820913
C           -3.84912846010409        1.07223953488016        0.59603857414547
C           -5.19233226022228        0.72880152818357        0.74766887239960
C           -6.15044177460321        1.57760526802744        1.46778460775517
C           -7.26316236602914        0.98780686923504        2.06481032978322
C           -8.17808091562135        1.75794561993096        2.75566793521865
C           -7.99950563069320        3.12862460008970        2.85262504973436
C           -6.90397989146800        3.72506500710802        2.25054276170506
C           -5.98276698200717        2.95691184729722        1.56306964614077
N           -5.66453482562577       -0.41326423171016        0.25500042578168
C           -4.82092237349155       -1.21283618848460       -0.38769461867475
C           -5.35307272251942       -2.47032430001329       -0.92119403990212
C           -4.51969565181981       -3.35090628661063       -1.60782511032640
C           -5.02396493098966       -4.53597057185016       -2.10749282715456
C           -6.36114719745301       -4.85378268550413       -1.92855786952243
C           -7.19563571666923       -3.98024395866960       -1.24907381093506
C           -6.69710678552596       -2.79368496889836       -0.74716759251655
N           -3.53187431561161       -0.96008781997164       -0.58317901340033
C           -1.06917901705799        1.69920777926816       -0.36824903223188
C            0.28124047958268        1.88882229966809       -0.57931685836318
C            7.21592456111417       -2.51371051458877        1.71595503185722
C            8.37624746452180       -3.01720775069950        2.27356909658311
H           10.35170981783877       -2.57102112465482        2.97112118743411
H           10.17847000624494       -0.16874466050499        2.43293763952769
H            8.11395330222218        0.72966843746173        1.44931677928486
H            4.59106857474688       -1.74640061693388        2.10714572402878
H            2.49118831461780       -0.89351060067809        1.16271449537252
H            6.88938593753731        0.64751786013346       -0.59354882216674
H            6.34840518229932        2.45903978576356       -2.56686824525557
H            5.26569235032751        3.95628317910843       -4.21108748145915
H            2.82554771278271        4.06063806325603       -4.38725209511696
H            1.38384626479472        2.70570628997177       -2.92047701872195
H            1.23880502587000       -1.34113951035153       -0.88731365374866
H           -1.18404847365858       -1.66733642702760       -0.49680395116575
H           -3.44634582742605        1.96771938965131        1.03843384406547
H           -7.38784183604335       -0.08050964345053        1.97959110238278
H           -9.03408933587675        1.29070601941754        3.22009941623677
H           -8.71468056101330        3.73213596323695        3.39192141981782
H           -6.76837666254508        4.79492734539730        2.31517792960052
H           -5.14458643629952        3.43723364202307        1.07995173181528
H           -3.48263672999206       -3.08628732710561       -1.74222643313758
H           -4.37492392102367       -5.21629790277951       -2.63969839824077
H           -6.75325004133879       -5.78123969434264       -2.32015502599896
H           -8.23842920067878       -4.22761962522262       -1.11247925591986
H           -7.33356586677002       -2.10057325928660       -0.21981654362400
H           -1.70882661518132        2.56102085588949       -0.24998049086710
H            0.69506083042831        2.88608102215043       -0.59347714482265
H            6.39135095077530       -3.17777699504115        1.50004189927298
H            8.44781550743590       -4.07033874909407        2.50483872907998
