70
 energy: -108.218215560347 gnorm: 0.000134402564 xtb: 6.7.1 (edcfbbe)
C            9.59960599321515       -2.99440564061200        0.83392537799351
C            8.53490381997753       -3.58097843426946        0.17069709920202
C            7.35162306258469       -2.88628681222269        0.00319714998830
C            7.21367796259342       -1.58950110296430        0.49302012001421
C            5.95756277171709       -0.84688598031815        0.30973159104673
C            4.72744393771550       -1.49332906188642        0.49165750869632
C            3.52335585645248       -0.84010329729986        0.32657874815105
C            3.55297812213673        0.49565026581418       -0.04809807003469
C            4.78272063281925        1.17251270307297       -0.21156139985343
C            5.98078176343363        0.49870368718907       -0.03332617358572
C            4.45940628057645        2.53268248254727       -0.54283777940401
C            5.22772691198169        3.65159321376223       -0.83419206163940
C            4.58433121048078        4.83372388376097       -1.14191167705662
C            3.19368128772734        4.90313494723464       -1.17738050264296
C            2.40808217210655        3.80280441440146       -0.89112697065386
C            3.04857883588954        2.61904767801741       -0.55469906580873
N            2.51234397121782        1.38048372439671       -0.25552162788983
C            1.15039145067660        1.07403614283763       -0.18039386973156
C            0.64129678498532       -0.04128408632752       -0.84376399976992
C           -0.70151626090542       -0.33957928108842       -0.76243440024274
C           -1.57216642866213        0.47196988555964       -0.03505432496509
C           -2.99623502886882        0.12349832816180        0.01375387635914
C           -3.99745889599499        1.06292490480338        0.25826387437252
C           -5.31381667589601        0.60265973264854        0.27234525512492
C           -6.46036985627440        1.48652097983418        0.52062065716955
C           -7.62250776117427        0.94869888784827        1.07083668740861
C           -8.71591047929474        1.75418445575558        1.32235514217063
C           -8.66735486785854        3.10551603649012        1.01962338198741
C           -7.52146174047993        3.64552128579972        0.45941740982956
C           -6.42245659817515        2.84404424941841        0.21188106810844
N           -5.58966031587139       -0.68362091808183        0.07393550096829
C           -4.57707462773404       -1.50922240895202       -0.16490475068816
C           -4.89558364677684       -2.92090219020586       -0.39855516631267
C           -3.87433283874221       -3.86192350701382       -0.51099912903819
C           -4.17795408080332       -5.19135784695160       -0.73193143477988
C           -5.49950030227079       -5.59421327630121       -0.84308545952781
C           -6.51946034245610       -4.66229912689376       -0.73217094909343
C           -6.22217277370975       -3.33146234637186       -0.51067818904169
N           -3.29860276362544       -1.15365677630052       -0.20900412112833
C           -1.05644417890816        1.58304511209166        0.62932952077738
C            0.28962145777826        1.87854713586998        0.56342925903446
C            8.29212606168161       -1.00924747846703        1.15704114696808
C            9.47334212199679       -1.70666374602213        1.32731620100120
H           10.52327112807103       -3.53846670881883        0.96604756731434
H            8.62865986565623       -4.58407490397537       -0.22002837579875
H            6.53085465001483       -3.34342030261257       -0.53055892324296
H            4.72477185747016       -2.52955940596848        0.79609542693395
H            2.58987620144945       -1.35387341932086        0.49990866519785
H            6.91976896935783        1.01141030575950       -0.17770338652328
H            6.30556181089662        3.59176142008244       -0.82462510838706
H            5.16280300626438        5.71670133969786       -1.36930181206657
H            2.71803751520737        5.83693058454974       -1.43882835422753
H            1.33142873871614        3.86327098496910       -0.94196864038983
H            1.30319806271179       -0.65668667210574       -1.43432830298811
H           -1.10673618465941       -1.19893054360490       -1.27334917666185
H           -3.76580300785547        2.10049079200698        0.42915925739742
H           -7.64424307819654       -0.10569806280421        1.29892811632587
H           -9.61022096017234        1.32934195577693        1.75419792471450
H           -9.52222038270879        3.73621883332693        1.21457510924713
H           -7.48528157566750        4.69648325436184        0.21175601942997
H           -5.54313801165198        3.27316515155055       -0.24579834984286
H           -2.85155642074706       -3.53175148301265       -0.41780519175593
H           -3.38379443487193       -5.91890327559714       -0.81763124225299
H           -5.73446572459684       -6.63441025161764       -1.01646930546456
H           -7.54915604390436       -4.97732106777217       -0.82008842305734
H           -7.00324181433522       -2.59217413878292       -0.42571632255307
H           -1.70158905670837        2.20552729182152        1.23117085585278
H            0.68808255581880        2.72340225445688        1.10511740099348
H            8.19397060123677       -0.01132950063125        1.55956261359206
H           10.29901604960920       -1.24515335559498        1.84978153541102
