  45
        -72.38765481
 O          1.7060967038        3.8261805937       -0.0993619799
 C          1.7417322163        2.5728909407       -0.0834460241
 C          1.8833223912        1.8124057809        1.1423896961
 C          2.2069217281        2.5183177461        2.3174538445
 C          2.4865499315        1.8318079557        3.4743623076
 C          2.4162555969        0.4438048320        3.5034680564
 C          2.0461336939       -0.2520558561        2.3631211585
 C          1.7563746607        0.4154477644        1.1829578647
 C          1.1737328607       -0.3350532973        0.0017527459
 C          1.6618859890       -1.7673071101        0.0167661159
 C          3.0288381522       -1.9972614554       -0.1407178675
 C          3.5343346256       -3.2818335698       -0.1144776431
 C          2.6827215470       -4.3594980619        0.0761033189
 C          1.3261714005       -4.1396709878        0.2444654423
 C          0.8171867893       -2.8522950183        0.2167806053
 C         -0.3523745533       -0.2507016684        0.0417019401
 C         -1.0332561331        0.1601544514        1.1809109685
 C         -2.4150600323        0.2330762650        1.1965030001
 C         -3.1240608427       -0.1109220202        0.0606640245
 Br        -5.0302374562       -0.0154981483        0.0734220678
 C         -2.4702299460       -0.5270685884       -1.0864046160
 C         -1.0905690845       -0.5922139734       -1.0878297300
 C          1.6159679306        0.3742162831       -1.2674357712
 C          1.7889775718       -0.3323315910       -2.4473791054
 C          2.0020133902        0.3277903575       -3.6478157112
 C          2.0314236714        1.7168039503       -3.6780143354
 C          1.8815234897        2.4403905257       -2.5203098063
 C          1.7215163091        1.7721977795       -1.2904108083
 H          2.2696815491        3.5935240826        2.2653631953
 H          2.7766634983        2.3804710654        4.3582802115
 H          2.6285852813       -0.0967693335        4.4127092235
 H          1.9398413564       -1.3260734948        2.3999243677
 H          3.6906095289       -1.1555979012       -0.2854279422
 H          4.5941650534       -3.4442197124       -0.2409050244
 H          3.0759276623       -5.3645355894        0.0975669063
 H          0.6578242007       -4.9731013346        0.4015949038
 H         -0.2413606039       -2.6942167543        0.3580924731
 H         -0.4890052079        0.4241915647        2.0735245824
 H         -2.9334169521        0.5541868099        2.0867374671
 H         -3.0323299163       -0.7955536500       -1.9674514233
 H         -0.5830730414       -0.9128963283       -1.9838654597
 H          1.7317453861       -1.4111169202       -2.4323983408
 H          2.1252885616       -0.2429270361       -4.5552577244
 H          2.1930560856        2.2374553297       -4.6103579348
 H          1.9245213454        3.5177902757       -2.5122281975
  45
        -72.38751998
 O          1.8636169937        3.8045257780       -0.0177630554
 C          1.8236168431        2.5506632158       -0.0155440383
 C          1.9469882616        1.7714825881        1.1999166341
 C          2.3096770364        2.4557498630        2.3770645727
 C          2.5269463418        1.7562051125        3.5393486588
 C          2.3602154554        0.3772750283        3.5705940926
 C          1.9662772232       -0.2956023764        2.4243036478
 C          1.7415143790        0.3840852794        1.2375866232
 C          1.1601612883       -0.3525774184        0.0467700732
 C          1.6845655681       -1.7719002319        0.0473469308
 C          3.0299256124       -1.9790482364       -0.2543329637
 C          3.5681680872       -3.2506820003       -0.2376040678
 C          2.7735721531       -4.3375049214        0.0939097254
 C          1.4428875571       -4.1386079036        0.4201784661
 C          0.9013346876       -2.8647247066        0.4016425724
 C         -0.3645087530       -0.2812732131        0.0700432172
 C         -1.0530320909        0.4624518599        1.0207699151
 C         -2.4334331026        0.5577086834        0.9856780177
 C         -3.1333539507       -0.0985638738       -0.0093559278
 Br        -5.0365155346        0.0259436640       -0.0643499961
 C         -2.4718002982       -0.8475922921       -0.9684807005
 C         -1.0946122586       -0.9287703896       -0.9240998957
 C          1.5576770886        0.3783393221       -1.2278105727
 C          1.6396515640       -0.3088786141       -2.4285852856
 C          1.8157470632        0.3655561597       -3.6264440898
 C          1.9037385333        1.7521168049       -3.6327426306
 C          1.8520565652        2.4555738874       -2.4550793349
 C          1.7192715557        1.7697176092       -1.2307291135
 H          2.4389927210        3.5250238077        2.3247726528
 H          2.8397037938        2.2880278047        4.4258641450
 H          2.5197625294       -0.1738081615        4.4842276483
 H          1.7965109280       -1.3612142020        2.4602649719
 H          3.6498781475       -1.1311074226       -0.5069520921
 H          4.6101572794       -3.3952753968       -0.4804695014
 H          3.1922135017       -5.3322838502        0.1060435723
 H          0.8214734841       -4.9776356994        0.6953531723
 H         -0.1340022736       -2.7216881171        0.6728211110
 H         -0.5190808884        0.9727852585        1.8056973331
 H         -2.9574669157        1.1387331264        1.7286494805
 H         -3.0267523832       -1.3568982462       -1.7410417374
 H         -0.5818878046       -1.5050131120       -1.6771713716
 H          1.5552426219       -1.3855003140       -2.4315752790
 H          1.8692962055       -0.1917317437       -4.5488010266
 H          2.0331969980        2.2856520590       -4.5628721131
 H          1.9440244834        3.5296029030       -2.4281052730
  45
        -72.38734602
 O          2.0618622045        3.7920484937        0.0016880558
 C          1.9304986198        2.5441760513       -0.0005902465
 C          1.9977153808        1.7559737795        1.2135871638
 C          2.3775523999        2.4230643379        2.3958760638
 C          2.5186228590        1.7208274712        3.5677804739
 C          2.2629670461        0.3561834801        3.6019372682
 C          1.8608877849       -0.2983246783        2.4480644271
 C          1.7126249025        0.3835746713        1.2506377053
 C          1.1404744237       -0.3424043559        0.0469275039
 C          1.6936841874       -1.7513302872        0.0418682660
 C          3.0179483318       -1.9446937837       -0.3465849006
 C          3.5826627567       -3.2050433241       -0.3234987064
 C          2.8378323421       -4.2935435233        0.1036185913
 C          1.5303026542       -4.1072707799        0.5192813097
 C          0.9624053017       -2.8451934389        0.4939789882
 C         -0.3834395635       -0.2882004741        0.0662102419
 C         -1.0676227975        0.5964570631        0.8930213575
 C         -2.4473736529        0.6880380840        0.8509855529
 C         -3.1534411122       -0.1131241535       -0.0276695270
 Br        -5.0570480017       -0.0024057710       -0.0855370137
 C         -2.4969665840       -0.9987981115       -0.8661251421
 C         -1.1193347538       -1.0745692485       -0.8178369056
 C          1.5201299341        0.4006137586       -1.2265699752
 C          1.5191079771       -0.2719528925       -2.4385510715
 C          1.7059635187        0.4047066085       -3.6330668674
 C          1.8876000398        1.7820742394       -3.6250974923
 C          1.9141013026        2.4703340360       -2.4382591113
 C          1.7628788641        1.7792081162       -1.2179248907
 H          2.5733605316        3.4820429021        2.3407592940
 H          2.8394496864        2.2390503752        4.4594507509
 H          2.3624551524       -0.1982196560        4.5220683610
 H          1.6302090459       -1.3521586917        2.4851626107
 H          3.6012657887       -1.0967259174       -0.6743355261
 H          4.6078320154       -3.3387325493       -0.6348100930
 H          3.2780782759       -5.2789671029        0.1224719019
 H          0.9484922006       -4.9464162187        0.8707255449
 H         -0.0531997663       -2.7112302694        0.8365654875
 H         -0.5286678902        1.2220305365        1.5857311392
 H         -2.9669398722        1.3770354530        1.4988664657
 H         -3.0563449703       -1.6169531549       -1.5512662117
 H         -0.6138747787       -1.7586346915       -1.4801690745
 H          1.3682836532       -1.3407683906       -2.4515146462
 H          1.6980653882       -0.1426562108       -4.5628546719
 H          2.0251056866        2.3193661427       -4.5519002261
 H          2.0753618183        3.5359392412       -2.4002552607
  45
        -72.38723898
 O          4.3129826449        2.4531286213       -0.0428714143
 C          3.1899811338        1.8955643543       -0.0233588381
 C          2.5158971311        1.5353197803        1.2073560509
 C          3.0567106797        2.0198386825        2.4143718493
 C          2.3700653281        1.8445642069        3.5909853826
 C          1.1543569342        1.1719376018        3.6023559746
 C          0.6458086556        0.6455188475        2.4245596870
 C          1.3284567306        0.7899114910        1.2268314865
 C          0.8866042241        0.0330302572       -0.0140636768
 C          1.6759013144       -1.2792089548       -0.0351144752
 C          2.3494915844       -1.7097551237       -1.1702921434
 C          3.0610802894       -2.8975275650       -1.1588627244
 C          3.1083587989       -3.6748589345       -0.0159847995
 C          2.4342038289       -3.2560143049        1.1189507608
 C          1.7265361608       -2.0688439485        1.1092135067
 C         -0.6063636518       -0.2041264388        0.0063380614
 C         -1.4480103758        0.8995497972        0.1482974792
 C         -2.8199498866        0.7520027042        0.1552272116
 C         -3.3602180561       -0.5167981442        0.0124493466
 Br        -5.2554363245       -0.7353482259        0.0210249519
 C         -2.5473864353       -1.6261953786       -0.1411519152
 C         -1.1729839613       -1.4639115151       -0.1449319836
 C          1.2514854681        0.8679488433       -1.2250112000
 C          0.5042492456        0.7807349029       -2.3894680800
 C          0.9264785939        1.3994975767       -3.5561104996
 C          2.1224735909        2.1076243204       -3.5691823618
 C          2.8808200223        2.2131764991       -2.4285557716
 C          2.4284678235        1.6327397159       -1.2274669267
 H          3.9897045980        2.5589286213        2.3740313385
 H          2.7740797069        2.2529643729        4.5055456588
 H          0.6103715832        1.0376686955        4.5245996724
 H         -0.2813689531        0.0912675301        2.4453363196
 H          2.3190528741       -1.1221050998       -2.0745408057
 H          3.5798036389       -3.2136843040       -2.0516830189
 H          3.6657268738       -4.5991804658       -0.0079769764
 H          2.4620961558       -3.8534628740        2.0181262227
 H          1.2121318410       -1.7494964310        2.0027090653
 H         -1.0161283239        1.8832867826        0.2555524708
 H         -3.4650176767        1.6094207987        0.2684475862
 H         -2.9815467681       -2.6070931708       -0.2581425290
 H         -0.5407033471       -2.3289808288       -0.2708627587
 H         -0.3955766680        0.1836690523       -2.3962374240
 H          0.3334042608        1.3084357281       -4.4527062564
 H          2.4571339715        2.5932356239       -4.4739771366
 H          3.8052889694        2.7678142891       -2.4099482556
  45
        -72.38699569
 O          4.1504960440        2.6886286105       -0.0715808481
 C          3.0958446226        2.0102122872       -0.0386043613
 C          2.5004230694        1.5518743511        1.1990792026
 C          3.0566048193        2.0373272391        2.4005306886
 C          2.4504496511        1.7560465341        3.5992987135
 C          1.2941773252        0.9872191671        3.6373225660
 C          0.7703851339        0.4715278301        2.4622166109
 C          1.3774918009        0.7161616877        1.2404724949
 C          0.9054768672       -0.0176330911       -0.0057119781
 C          1.6838427401       -1.3331660124       -0.0108623768
 C          2.6769892534       -1.5946843233       -0.9456628895
 C          3.3941266220       -2.7782060142       -0.8979979558
 C          3.1326073590       -3.7182700979        0.0824108189
 C          2.1468869992       -3.4642294872        1.0216295427
 C          1.4341003491       -2.2816921333        0.9774298886
 C         -0.5928499700       -0.2223931464        0.0194646756
 C         -1.4078435693        0.8644315482        0.3326460840
 C         -2.7832492009        0.7486518998        0.3257769942
 C         -3.3547726758       -0.4680088662       -0.0118989124
 Br        -5.2541284039       -0.6425273617       -0.0229683061
 C         -2.5689002400       -1.5558587239       -0.3505818784
 C         -1.1917854360       -1.4262307246       -0.3368658564
 C          1.2499744083        0.8073447322       -1.2311857884
 C          0.5436669060        0.6154446021       -2.4084174687
 C          0.9173686433        1.2527917411       -3.5813041697
 C          2.0225249666        2.0945648853       -3.5873896832
 C          2.7430876663        2.3013569111       -2.4367206917
 C          2.3450953581        1.6839416640       -1.2335700566
 H          3.9392496085        2.6535431748        2.3374194568
 H          2.8698064843        2.1549241242        4.5112550306
 H          0.8062575476        0.7757506565        4.5761720581
 H         -0.1189996959       -0.1394233794        2.5021765220
 H          2.8932059696       -0.8798819947       -1.7237175339
 H          4.1608681273       -2.9632010680       -1.6351641337
 H          3.6926710601       -4.6401066819        0.1174909646
 H          1.9347250832       -4.1874075774        1.7951337128
 H          0.6769953942       -2.0930668780        1.7224875806
 H         -0.9545034743        1.8100894349        0.5888412934
 H         -3.4068592656        1.5924930845        0.5769749577
 H         -3.0268121047       -2.4929491038       -0.6273925622
 H         -0.5813134499       -2.2717172871       -0.6142272854
 H         -0.2903521687       -0.0700384383       -2.4171326246
 H          0.3550920112        1.0787214500       -4.4853684617
 H          2.3171251016        2.6015316485       -4.4943844730
 H          3.6013541095        2.9537330132       -2.4130150355
  45
        -72.38689630
 O          4.0668240903        2.7794516461       -0.0766024459
 C          3.0463849865        2.0503699705       -0.0405251984
 C          2.4836431509        1.5569496769        1.1986735151
 C          3.0380002787        2.0507267411        2.3978782162
 C          2.4699311647        1.7221564725        3.6030910100
 C          1.3512676813        0.9005348218        3.6500505638
 C          0.8279997476        0.3824490345        2.4759906812
 C          1.3965613846        0.6766621331        1.2467297348
 C          0.9126751298       -0.0493164564        0.0002006251
 C          1.6869953196       -1.3658367276       -0.0033380493
 C          2.7655954324       -1.5699937520       -0.8555742629
 C          3.4956292369       -2.7447292233       -0.7994308503
 C          3.1635450082       -3.7337781798        0.1091645970
 C          2.0938494057       -3.5371239535        0.9670097716
 C          1.3671508800       -2.3631338780        0.9144930688
 C         -0.5882851902       -0.2347943250        0.0289171761
 C         -1.3869389104        0.8474771562        0.3939024473
 C         -2.7641674092        0.7536508402        0.3797300595
 C         -3.3539010103       -0.4355829621       -0.0180601966
 Br        -5.2559915507       -0.5783909377       -0.0421068900
 C         -2.5845851254       -1.5178467677       -0.4087507137
 C         -1.2057566096       -1.4101261733       -0.3876241474
 C          1.2514641068        0.7696785055       -1.2322268069
 C          0.5710850579        0.5307948440       -2.4161127291
 C          0.9275672231        1.1721582520       -3.5920053611
 C          1.9889549455        2.0681614354       -3.5944270940
 C          2.6849649072        2.3207291407       -2.4381221124
 C          2.3073626738        1.6922148876       -1.2336235587
 H          3.8919406741        2.7053852825        2.3290790073
 H          2.8919183327        2.1214524727        4.5136323568
 H          0.8921810914        0.6509833108        4.5940305300
 H         -0.0329231495       -0.2669665818        2.5213911700
 H          3.0394591096       -0.8147693140       -1.5750602875
 H          4.3287139716       -2.8843301156       -1.4721343331
 H          3.7339994080       -4.6490615654        0.1514900821
 H          1.8264032001       -4.2990176825        1.6841000313
 H          0.5437180385       -2.2221902101        1.5971757691
 H         -0.9204325808        1.7728943593        0.6960304002
 H         -3.3747040963        1.5942690065        0.6706092263
 H         -3.0565854135       -2.4328376029       -0.7319407790
 H         -0.6080022772       -2.2506115517       -0.7056676020
 H         -0.2311537101       -0.1913772293       -2.4266729322
 H          0.3846662514        0.9613868154       -4.5002651620
 H          2.2694868445        2.5792216969       -4.5036273293
 H          3.5112695461        3.0129659475       -2.4113479620
  45
        -72.38677347
 O          3.8341415090        3.0270649010       -0.0709952878
 C          2.9152579288        2.1726412965       -0.0391884113
 C          2.4220382330        1.6065115712        1.1977857173
 C          2.9435333907        2.1388551860        2.3965323281
 C          2.4525049394        1.7190407226        3.6066922838
 C          1.4398052466        0.7701085186        3.6610049277
 C          0.9456014777        0.2256671338        2.4869321440
 C          1.4363535640        0.6156844598        1.2504460698
 C          0.9449709783       -0.1068373604        0.0047340738
 C          1.6975849201       -1.4333251084        0.0005627781
 C          2.8667526233       -1.5788318331       -0.7386852994
 C          3.5837668340       -2.7613073865       -0.7004610072
 C          3.1507108662       -3.8177164995        0.0820538124
 C          1.9971648479       -3.6770500771        0.8353341428
 C          1.2815042444       -2.4950321777        0.7999333422
 C         -0.5617215074       -0.2546127422        0.0344044821
 C         -1.3308049084        0.8216881774        0.4714973804
 C         -2.7103034763        0.7648082030        0.4584849679
 C         -3.3328025371       -0.3805181900       -0.0103463217
 Br        -5.2381653544       -0.4741546814       -0.0287869979
 C         -2.5936951509       -1.4550748470       -0.4734568165
 C         -1.2126102228       -1.3840383436       -0.4541169839
 C          1.2838120382        0.6945691002       -1.2416713181
 C          0.6850233182        0.3464530894       -2.4424434295
 C          1.0166805349        0.9868340710       -3.6259614840
 C          1.9682548008        1.9980200298       -3.6183123571
 C          2.5835077063        2.3598119697       -2.4459114026
 C          2.2381717793        1.7200763934       -1.2367184745
 H          3.7156277929        2.8880792864        2.3227956660
 H          2.8534659218        2.1420266497        4.5160779767
 H          1.0395837050        0.4466551883        4.6093338047
 H          0.1628211336       -0.5153341774        2.5346037605
 H          3.2201868108       -0.7670925950       -1.3548338984
 H          4.4857140307       -2.8552585595       -1.2866799580
 H          3.7090274333       -4.7410800207        0.1091282777
 H          1.6529323047       -4.4904136663        1.4567976156
 H          0.3899012622       -2.4041694668        1.4008374560
 H         -0.8406213125        1.7139956656        0.8299997179
 H         -3.2971796246        1.6011950570        0.8050866047
 H         -3.0905127248       -2.3361285658       -0.8494372989
 H         -0.6408688882       -2.2206561731       -0.8259565898
 H         -0.0380830574       -0.4544840478       -2.4576807616
 H          0.5372164352        0.6896705147       -4.5456403806
 H          2.2282729581        2.5110635322       -4.5325074826
 H          3.3277058490        3.1394395408       -2.4106939562
  45
        -72.38668312
 O          3.6164182211        3.2016620206       -0.0627652290
 C          2.7922759099        2.2550518911       -0.0357561299
 C          2.3653558866        1.6335704699        1.1995625248
 C          2.8611411655        2.1919766535        2.3977271470
 C          2.4479866413        1.7002675569        3.6097341656
 C          1.5355947875        0.6547364677        3.6673579949
 C          1.0608697555        0.0937839266        2.4932666018
 C          1.4722283798        0.5594112790        1.2537937266
 C          0.9698872778       -0.1588864720        0.0098676291
 C          1.7027435631       -1.4938688455        0.0046360394
 C          2.9239879238       -1.6078712816       -0.6529555647
 C          3.6390202455       -2.7907809168       -0.6160480893
 C          3.1521410829       -3.8801561143        0.0865182160
 C          1.9471268470       -3.7717183483        0.7597806554
 C          1.2318852698       -2.5888676659        0.7244456254
 C         -0.5407925550       -0.2733796827        0.0408958522
 C         -1.2843086108        0.7979460400        0.5309680030
 C         -2.6648059269        0.7755894588        0.5147230638
 C         -3.3151639541       -0.3290591686       -0.0102817951
 Br        -5.2217262506       -0.3734144275       -0.0370798336
 C         -2.6016382682       -1.3983217009       -0.5230025371
 C         -1.2194538108       -1.3626577765       -0.4990898642
 C          1.3091638109        0.6318872470       -1.2448253061
 C          0.7797305875        0.2101556588       -2.4546038813
 C          1.0877067224        0.8544824077       -3.6419977368
 C          1.9448596769        1.9467801815       -3.6292263430
 C          2.4917396853        2.3819609430       -2.4484300798
 C          2.1742324461        1.7327807387       -1.2359818140
 H          3.5563825657        3.0128472412        2.3221502558
 H          2.8335292848        2.1387916916        4.5184333986
 H          1.1969380174        0.2714492003        4.6173321676
 H          0.3530120827       -0.7185931323        2.5416266244
 H          3.3180376533       -0.7668268844       -1.2021510968
 H          4.5816150032       -2.8602292950       -1.1380931896
 H          3.7094208107       -4.8041322579        0.1142377692
 H          1.5614126678       -4.6109188000        1.3194720952
 H          0.2988214684       -2.5256957443        1.2633016976
 H         -0.7742747793        1.6600163061        0.9325441137
 H         -3.2312284878        1.6083465456        0.9016853612
 H         -3.1193320533       -2.2482875776       -0.9403079268
 H         -0.6698911127       -2.1976189870       -0.9064444980
 H          0.1256940653       -0.6475016098       -2.4721551201
 H          0.6607669451        0.5005223675       -4.5674229094
 H          2.1857139231        2.4636999236       -4.5464712908
 H          3.1647416421        3.2236978072       -2.4096552489
  45
        -72.38661679
 O          3.3451059972        3.3879936982       -0.0545110884
 C          2.6408575387        2.3487847613       -0.0352918705
 C          2.2919274238        1.6723736832        1.1957493484
 C          2.7537618000        2.2581071540        2.3947853985
 C          2.4255372462        1.7022064695        3.6050128441
 C          1.6306526488        0.5647745730        3.6604665146
 C          1.1848279609       -0.0175005772        2.4854349131
 C          1.5099510363        0.5146996422        1.2471007205
 C          1.0023301971       -0.2027479036        0.0047487789
 C          1.7054568287       -1.5513084904       -0.0018261092
 C          2.9582315476       -1.6603213570       -0.5996709962
 C          3.6529362861       -2.8549271542       -0.5736731162
 C          3.1143907233       -3.9619455036        0.0613092721
 C          1.8796755904       -3.8582352064        0.6787121336
 C          1.1831812801       -2.6634245013        0.6527456454
 C         -0.5125873738       -0.2814427716        0.0328719461
 C         -1.2324818067        0.7829063173        0.5710679195
 C         -2.6134148329        0.7876262636        0.5647571496
 C         -3.2889327097       -0.2821164544        0.0014325107
 Br        -5.1961784277       -0.2923146062       -0.0061429282
 C         -2.5995909558       -1.3420641126       -0.5609935287
 C         -1.2169733972       -1.3335895166       -0.5463265809
 C          1.3523954438        0.5752006856       -1.2557634200
 C          0.9214572102        0.0742432069       -2.4746234268
 C          1.2146589251        0.7188726855       -3.6651485208
 C          1.9544198295        1.8941063599       -3.6461456472
 C          2.4038111833        2.4082726407       -2.4566581438
 C          2.1077364410        1.7528205135       -1.2413014643
 H          3.3592236231        3.1473440046        2.3202739766
 H          2.7887745120        2.1598732879        4.5134627742
 H          1.3589661950        0.1287925183        4.6091980469
 H          0.5651010198       -0.8987996056        2.5319003015
 H          3.3900052912       -0.8031669361       -1.0934362811
 H          4.6195498377       -2.9201657282       -1.0503693230
 H          3.6549743769       -4.8959445631        0.0800543408
 H          1.4544968181       -4.7116039273        1.1860934589
 H          0.2244438153       -2.6061632831        1.1459266632
 H         -0.7050253742        1.6177386810        1.0059092401
 H         -3.1598388485        1.6138831248        0.9922623070
 H         -3.1363107853       -2.1652459735       -1.0068446831
 H         -0.6895469140       -2.1646909870       -0.9885993305
 H          0.3558048151       -0.8436861370       -2.4950531805
 H          0.8665759697        0.3025821429       -4.5976456632
 H          2.1826129478        2.4113329801       -4.5664969232
 H          2.9879721224        3.3136145011       -2.4113685175
