59
 energy: -98.341336444723 gnorm: 0.000075790864 xtb: 6.7.1 (edcfbbe)
C            0.85199234953214        3.67221564599163       -0.28048780083249
C            0.06351217108653        2.73168950148089       -0.91825443447712
C            0.48478536332520        1.41679438003025       -1.02097624376050
C            1.70599428838386        1.03805350087587       -0.48538463907901
C            2.52658712160961        2.00532598618005        0.09851353823268
C            2.09325414136541        3.31550428653566        0.21575002706675
O            3.79433104004818        1.69525940881611        0.53882624811628
C            4.37225484607769        0.62491271177694       -0.08905714128249
C            5.75528960249552        0.56095005261674       -0.15918161525306
C            6.36298653474775       -0.48008061586301       -0.83946888787898
C            5.59214515228346       -1.42865634163763       -1.48856240406104
C            4.21052311655186       -1.37208386098341       -1.41706095838352
C            3.58947793458702       -0.37588938130237       -0.67486208309944
N            2.19135030980639       -0.29242668103718       -0.52441409754827
C            1.40386722968183       -1.34812699806469       -0.13688347963037
C            1.96313008757537       -2.62013103355177        0.17900124643885
C            1.12752241137060       -3.63560734824565        0.52989875188576
C           -0.26778675723889       -3.41490721827406        0.61829706255109
C           -1.20209363315494       -4.40763830542888        0.95620024005283
C           -2.53017337129067       -4.09240163238476        1.07764989136650
C           -2.96783465376667       -2.77463315549899        0.89804673639555
C           -2.08137327410434       -1.77851596263245        0.56524023392510
N           -2.50777361545516       -0.44162034528919        0.41206556399723
C           -3.24779543552820       -0.05841790907175       -0.70399809604666
C           -3.68921540469981       -0.97192787372037       -1.65283089129618
C           -4.43927680952444       -0.55844444599608       -2.74383846476234
C           -4.75217468442786        0.77483411727550       -2.91031359327642
C           -4.29799142861575        1.70378827202845       -1.98443905226417
C           -3.55257527987409        1.29668061516056       -0.89443444382227
O           -3.12725149964799        2.27526253231972       -0.02975220800153
C           -2.30322393027755        1.89013160149921        1.00105764567638
C           -1.80337505898375        2.89230202402667        1.80975229175799
C           -0.98017022304238        2.58051377932919        2.88112887852199
C           -0.68551109465037        1.25938088156686        3.14829467965186
C           -1.19166511969031        0.25090693631719        2.34352367804229
C           -1.98256848205957        0.54879969621557        1.24187486784599
C           -0.70831427212689       -2.08803719450810        0.38098590687983
N            0.11828828958695       -1.10837138413365       -0.01196346084878
H            0.51231135868393        4.69149873422600       -0.18329264892537
H           -0.88786248625598        3.01948622595088       -1.33715115728484
H           -0.13276813598112        0.67823325633909       -1.50241786608674
H            2.73976837473504        4.03433545391418        0.69340355681917
H            6.33367687846839        1.33139427518624        0.32495134293605
H            7.43963257963795       -0.53431929080392       -0.88103871877532
H            6.06368893715927       -2.21787592846253       -2.05351414838310
H            3.60657755324303       -2.10080871693127       -1.93601513319115
H            3.03119286531523       -2.76365874430654        0.17473802903362
H            1.52143917489848       -4.61336736900912        0.77123345925203
H           -0.85568900276898       -5.41798314726650        1.12042332896065
H           -3.24974226060668       -4.85498166615180        1.33504282359961
H           -4.01243549524590       -2.53198172691410        1.02811434882835
H           -3.43961562678280       -2.01542722840605       -1.53954077979973
H           -4.77389772828070       -1.29147920457575       -3.46208820715052
H           -5.33847286036139        1.10182967785557       -3.75465910945776
H           -4.51427135536351        2.75490865833083       -2.09274099329878
H           -2.06991011988728        3.91268874058889        1.58501536633731
H           -0.58641485444753        3.36908880843029        3.50286654362191
H           -0.06303987760019        0.99935396191608        3.99109658183492
H           -0.96920783488780       -0.77870350699758        2.57583188939616
