59
 energy: -98.272849112069 gnorm: 0.000043034769 xtb: 6.7.1 (edcfbbe)
C            0.44542948753247        3.21687465789821       -2.12053847966273
C           -0.05985774992856        1.96386364392314       -2.41418424368645
C            0.54843631877539        0.82786686227217       -1.91022453788347
C            1.66160833343814        0.92523814342507       -1.07850601908632
C            2.19193422205457        2.19810493650809       -0.82648517863047
C            1.58388363668660        3.33056014509751       -1.33869847001536
O            3.32462611948492        2.37970782531207       -0.08064193755047
C            3.88123760488937        1.27197286165539        0.50046423699762
C            4.98839721105867        1.48078257429586        1.30473199312741
C            5.58411509756091        0.41812098795031        1.96438520208909
C            5.04998203908370       -0.84988002428535        1.83230617105614
C            3.94466888783978       -1.06549621858478        1.02688287644484
C            3.35389272779086       -0.01723124067851        0.32829264485217
N            2.25774113923641       -0.20208937651401       -0.51422935404975
C            1.48275642138914       -1.37484052241706       -0.45041638677884
C            1.92369795939024       -2.63793520038552       -0.78358745031122
C            1.05783320742160       -3.72074471153140       -0.63024282362277
C           -0.25906068849761       -3.52423175875830       -0.15359703678219
C           -1.18528355197313       -4.53938581732239        0.10105433383004
C           -2.46110673283193       -4.24065579278627        0.58191213005954
C           -2.85913660755537       -2.93666906691878        0.77209966855886
C           -1.96684662966349       -1.88705272013078        0.50555146451453
N           -2.35173315599976       -0.53090662120235        0.52118227283470
C           -3.27303504432965       -0.04726585230307       -0.40872338579832
C           -4.12963461803302       -0.88460678532939       -1.12090831659312
C           -5.04986893688344       -0.36768182899682       -2.01434852692892
C           -5.12900286654748        0.99729786895590       -2.23100515566032
C           -4.25952482492953        1.84342906861706       -1.56688584438265
C           -3.33297198452918        1.33227833500024       -0.67038100157079
O           -2.48031768371307        2.22851730997196       -0.09601891088499
C           -1.52862726692423        1.73788095652599        0.74916132240776
C           -0.60069013062850        2.63238875764269        1.25337592150056
C            0.37266136488098        2.19590686350761        2.13808966345068
C            0.37691891405940        0.87679760808725        2.56312434072311
C           -0.54748992367017       -0.02075476024138        2.06719435772862
C           -1.48971344923911        0.38070172631508        1.10940165534965
C           -0.63721245195047       -2.17254036943369        0.10602644305533
N            0.22443148650065       -1.17071084887966       -0.00741928840921
H           -0.03086733680944        4.10395425377533       -2.50740542063609
H           -0.93189921674274        1.86220946933374       -3.04266539493820
H            0.15768450164807       -0.14381596254246       -2.16392131188241
H            2.01785023185931        4.29134118004766       -1.11188874853800
H            5.36220356607395        2.48719254989034        1.40615103916093
H            6.44994135060517        0.58818099366178        2.58463820891749
H            5.49041660543083       -1.68326066998987        2.35772094750835
H            3.52422930428276       -2.05473201465756        0.94964860756360
H            2.91752670981920       -2.77707295481899       -1.18093177232220
H            1.38016577457589       -4.71498243305368       -0.89625568511451
H           -0.88787590275977       -5.56775584399504       -0.03871665861563
H           -3.14299407932794       -5.04637345743175        0.80960987203068
H           -3.83850048183855       -2.70735408845691        1.16495726269178
H           -4.06179225410204       -1.95092589467469       -0.98298338629457
H           -5.70380701426670       -1.04070463654743       -2.54687585825732
H           -5.84894065862386        1.40191410036796       -2.92471554519400
H           -4.26894022194543        2.90857410005723       -1.73450095136381
H           -0.65041750971869        3.65943659468242        0.93067846497564
H            1.11005658891921        2.89112276180584        2.50793741659258
H            1.11301305511605        0.54085386529821        3.27754998657255
H           -0.56610945838619       -1.03779828575542        2.42398260668664
