128
 energy: -198.691488668198 gnorm: 0.000139253122 xtb: 6.7.1 (edcfbbe)
C           -7.15423622652352        5.66399982955027        1.91123023198865
C           -7.68289322139814        4.37149174976676        2.55096414675345
C           -9.20495531510746        4.34287392115557        2.38161358621846
C           -7.36640975063371        4.36880381894863        4.05392604145246
C           -6.99506639328111        3.18405291229451        1.89643595179761
C           -5.60953945129502        3.06844420870570        1.94981161613062
C           -4.95853847210450        2.01958072391852        1.33993029369281
C           -5.66187314085144        1.04518092538428        0.63057981107832
C           -7.05432778170372        1.09522064551157        0.62772264392371
C           -7.68216266367613        2.16893240334979        1.25013097681651
C           -7.91003979427714        0.00235133387914        0.01800631512192
C           -8.79741624730521        0.61770409762628       -1.08033826311328
C           -8.77912182211351       -0.61165096995195        1.13162843779676
C           -7.06735103938156       -1.09228290173483       -0.60629004542733
C           -7.70087181708046       -2.16280204894315       -1.22106161366463
C           -7.02530707292740       -3.18131267872974       -1.88180515409072
C           -7.80725376275562       -4.32915995855333       -2.50045785415404
C           -8.77140443385290       -3.77318182091173       -3.55902738465743
C           -6.89644975883907       -5.35835872320298       -3.17638982975084
C           -8.60153988240254       -5.04427756989448       -1.39726825083151
C           -5.64377582566220       -3.07116365373084       -1.95566708225171
C           -4.98428096816754       -2.02069787030782       -1.35037976939291
C           -5.67300515084103       -1.04658207853840       -0.63037653179415
N           -4.97686796929071       -0.00195562984457       -0.00405733079002
C           -3.58788178305165       -0.00482196709345       -0.01160144226186
C           -2.84824266386991        1.04067942505275       -0.58778049742965
F           -3.50009586000338        2.05113493845437       -1.18315798157487
C           -1.46460516523402        1.04489522036987       -0.57773026083716
F           -0.80855709556848        2.05627616588364       -1.16697345413776
C           -0.73550530056391       -0.00744379364116       -0.02143591970806
C            0.73530787509259       -0.00740789253727       -0.02196416565047
C            1.46384087208683       -1.05972168723441       -0.57909413259688
F            0.80725759459045       -2.07052414579737       -1.16861655158621
C            2.84748551971082       -1.05606890954941       -0.58939382979597
F            3.49882787106670       -2.06647430375280       -1.18541120576615
C            3.58765614975669       -0.01124732908157       -0.01273263279213
N            4.97665122181328       -0.01519499594578       -0.00444106370624
C            5.66041381987661       -1.06169838478715        0.63254758841019
C            4.95858339527477       -2.03667916695710        1.33858712873777
C            5.60657345244723       -3.08863797404292        1.95363101259436
C            6.98908566109356       -3.19949092327549        1.90432434612540
C            7.75910204157942       -4.34922537822171        2.53426318608440
C            8.70536465934443       -3.79629100539808        3.61040787246227
C            8.57151131770013       -5.06296917413686        1.44346420298991
C            6.83573018662539       -5.37884664933214        3.19227103240817
C            7.67682874024643       -2.18015061012925        1.25762297327279
C            7.05500489623169       -1.10830900129182        0.63328535938493
C            7.90973395821800       -0.01311728894659        0.02653222655732
C            8.77309849769035        0.60327958008065        1.14328972131896
C            8.80278420545487       -0.62663048810335       -1.06822598258806
C            7.06612419952196        1.07913215190964       -0.60079697823768
C            7.70564533076629        2.15180427335127       -1.21295964339266
C            7.03075645683242        3.16650760447914       -1.87268217212985
C            7.73124251001935        4.35265172057443       -2.51606639906020
C            7.44287443557721        4.34789235089040       -4.02466214426615
C            7.19157027930659        5.64640433435414       -1.88817129700553
C            9.24988101309181        4.32345021875420       -2.31839360171598
C            5.64628783497041        3.05167360188202       -1.95078618187131
C            4.98383131069506        2.00403966822129       -1.35116459103288
C            5.67396780910554        1.03015772076947       -0.62825911267230
C            2.84667998743454        1.03689686949981        0.55682888749569
F            3.49676126658353        2.04608304831077        1.15623038361136
C            1.46318297190020        1.04403375149796        0.53779639722847
F            0.80561268239752        2.05649778715696        1.12351821673620
C           -1.46283063540640       -1.05926175723936        0.53837909157842
F           -0.80473939367305       -2.07160364423623        1.12361183342421
C           -2.84632725561025       -1.05267223191528        0.55771905806222
F           -3.49584594758063       -2.06221808415009        1.15713601469155
H           -6.08221085476637        5.76798624362119        2.05480469976122
H           -7.64262653489344        6.52888692873244        2.35536461280931
H           -7.35539997288832        5.66433496535041        0.84167444822268
H           -9.63667445044192        5.22455145750336        2.85116293473002
H           -9.48155812464289        4.35443702191738        1.32981518614237
H           -9.63656747023506        3.46592100133348        2.85867511123901
H           -7.71182432537924        3.44309174361512        4.51020066455020
H           -7.86577379435151        5.20272795731847        4.54274006392748
H           -6.29871167759205        4.45956461318992        4.23386068729525
H           -5.01454919440635        3.79833184974491        2.47620938011715
H           -3.88447931264739        1.95985746872112        1.43338954226023
H           -8.75711634028406        2.20113704750419        1.22498870573208
H           -9.43447322178911        1.39658875899696       -0.67203347616216
H           -9.43267733770903       -0.13645128590081       -1.53496343983528
H           -8.17355155079892        1.05555544143816       -1.85757917217595
H           -8.14259640828931       -1.05271351022669        1.89669126965412
H           -9.42522204576042       -1.38854184284980        0.73386114006015
H           -9.40423050855441        0.14370086655988        1.59833256879289
H           -8.77718732441146       -2.20084766191926       -1.18436118763275
H           -9.31178107435323       -4.58794248802968       -4.03641670507143
H           -8.21878835260316       -3.23054390870599       -4.32353438921142
H           -9.49820034448746       -3.09662760581225       -3.11847496858769
H           -6.19877376510980       -5.79113954138926       -2.46283984724882
H           -6.33733891183232       -4.90955918981772       -3.99434044443348
H           -7.50156102792231       -6.16451328839004       -3.58644472395201
H           -9.31683746508545       -4.37630806252762       -0.92581575900796
H           -9.14780319351106       -5.88670464111101       -1.81634494942215
H           -7.92636973265459       -5.41763351075066       -0.62972710104456
H           -5.05172154021636       -3.79593871015468       -2.48881329266403
H           -3.91136882641478       -1.96357624836337       -1.45844054909674
H            3.88399447045244       -1.97962468119844        1.42800244395453
H            5.00458683177376       -3.81403398613781        2.47466434291159
H            9.23571841422876       -4.61265125673438        4.09620414471034
H            9.44109175708358       -3.12051000236830        3.18368977013049
H            8.14027449622303       -3.25361730261645        4.36571151355067
H            9.10948041520863       -5.90694834694796        1.87006496622526
H            9.29556204828993       -4.39479476298122        0.98587352043304
H            7.90925198511918       -5.43381331437529        0.66355291737801
H            7.43286384300653       -6.18645385242791        3.61108277881142
H            6.26305502398143       -4.93106948365584        4.00135587261878
H            6.15001167440060       -5.80948547331358        2.46594655985038
H            8.75361727002418       -2.21843045297357        1.24063679015236
H            9.41895353810020        1.38163051383592        0.74795977090377
H            8.13254400802120        1.04213032510898        1.90625778003722
H            9.39800128666157       -0.15057611374194        1.61256777321562
H            9.44393168292387       -1.40002710582569       -0.65594879692734
H            9.43429183287965        0.12977803035778       -1.52443309356865
H            8.18302981145724       -1.07191844361696       -1.84452698093500
H            8.77996006667319        2.18379096833395       -1.16803613574188
H            6.37885053276860        4.43986220506418       -4.22461857669147
H            7.79540263491895        3.42091607923459       -4.47284261505843
H            7.95251503177180        5.18026103182879       -4.50546111389969
H            7.37232864375160        5.64803409882688       -0.81496679340812
H            7.68897100906685        6.51033666776940       -2.32410282992353
H            6.12255882097751        5.75097496044174       -2.05226971695419
H            9.50683854792034        4.33599546980205       -1.26163240050472
H            9.68986582946691        3.44575808667680       -2.78637769460574
H            9.69068211132886        5.20442509245720       -2.78074926962729
H            5.06135850623832        3.78131058200359       -2.48870177953525
H            3.91148810710714        1.94441856456026       -1.46309719913626
