128
 energy: -198.690749642403 gnorm: 0.000066680122 xtb: 6.7.1 (edcfbbe)
C           -8.63031648994375       -2.37731233694416        4.67406715681755
C           -7.77610348156347       -3.29022259800950        3.78188442784798
C           -8.68353737909368       -4.25800591204628        3.00745424500120
C           -6.85706315523407       -4.11688805101457        4.68627856750473
C           -6.99997185091423       -2.43507032678519        2.79255109095810
C           -5.61471009488081       -2.43392558103394        2.70701054245977
C           -4.96276666136117       -1.63247900762741        1.79167524163649
C           -5.66524237294909       -0.78801844649063        0.93462909382774
C           -7.06001012037424       -0.80271938997781        0.96894811521076
C           -7.68508799700501       -1.61829151846329        1.90114965310501
C           -7.90943929079928        0.00565744877610        0.00735896614345
C           -8.78660522478573        0.97568126421810        0.82092699395097
C           -8.78865325067066       -0.96357040970807       -0.80494616183595
C           -7.06067804616504        0.81327469048543       -0.95545256455397
C           -7.68634060475333        1.62946047668030       -1.88672331230766
C           -7.00174021218992        2.44558812373139       -2.77911736265944
C           -7.77849761404029        3.30140575662987       -3.76738282709355
C           -8.63488980532603        2.38924729314028       -4.65824585017485
C           -8.68387264653776        4.27011426897223       -2.99170133653996
C           -6.85998303991390        4.12710049408777       -4.67319553135123
C           -5.61635800621288        2.44319303623840       -2.69554242759465
C           -4.96384315989618        1.64111361828692       -1.78116898351723
C           -5.66587919465662        0.79723260210116       -0.92318890180746
N           -4.97917001480751        0.00423175530853        0.00516102024681
C           -3.58654238771766        0.00322134363517        0.00376839441051
C           -2.84783707022209        0.50134897359829        1.08671719213464
F           -3.50171253621641        1.01349607992263        2.13908742909456
C           -1.46361366428936        0.50280176692742        1.08276285224593
F           -0.81183300112570        1.05275858389072        2.11751921774467
C           -0.73478313835988        0.00101695195823        0.00089881553140
C            0.73478101785792       -0.00020006447115       -0.00052746554330
C            1.46447120059023        0.50015171899214       -1.08247826326689
F            0.81362688512395        1.05091034672214       -2.11739665682590
C            2.84868949470430        0.49646553004699       -1.08636222852563
F            3.50344805910863        1.00730765284819       -2.13881658922777
C            3.58653936217673       -0.00257894008071       -0.00325167076036
N            4.97916771708789       -0.00370814726115       -0.00458189238664
C            5.66402404793073       -0.79707448515129       -0.93398973991013
C            4.96026872583367       -1.64094626949872       -1.79056847558419
C            5.61097752975971       -2.44343718420544       -2.70586735990643
C            6.99621185700061       -2.44626414145116       -2.79182975379167
C            7.77101791903258       -3.30261883096038       -3.78116213127165
C            6.85071053932396       -4.12829788685798       -4.68516890910250
C            8.67738784397096       -4.27138827122024       -3.00671949774236
C            8.62620229277809       -2.39101312599390       -4.67374732187987
C            7.68258119388653       -1.63007360611545       -1.90085377034404
C            7.05876127931349       -0.81348026538885       -0.96870431985022
C            7.90943542688967       -0.00582652489968       -0.00761037502321
C            8.78782297411895       -0.97584385772106        0.80464576300996
C            8.78742996091117        0.96298830088110       -0.82172496916011
C            7.06192040086438        0.80300342534607        0.95528237884078
C            7.68884322993332        1.61866080077289        1.88616906095967
C            7.00549649506119        2.43578235062356        2.77861420744439
C            7.78358651801875        3.29095141856923        3.76639240679114
C            8.68962941850958        4.25856578958040        2.99012478921445
C            6.86633523270107        4.11776794457305        4.67246237159247
C            8.63942011649951        2.37806458183297        4.65704529956190
C            5.62008496310696        2.43497023446618        2.69551675556816
C            4.96633417311663        1.63347896396570        1.78150951514025
C            5.66709169371861        0.78862319221693        0.92344570469370
C            2.84992866548324       -0.50040994423587        1.08126051319016
F            3.50583645429276       -1.01235520668198        2.13246275197606
C            1.46570156837750       -0.50177173407497        1.08002660345196
F            0.81591849150927       -1.05148231254520        2.11616944599453
C           -1.46656424136079       -0.49960547986929       -1.07951487754321
F           -0.81771792287040       -1.05056978753501       -2.11557848732348
C           -2.85078607889368       -0.49600688309997       -1.08068276621892
F           -3.50757551193676       -1.00710795709732       -2.13174463572265
H           -9.17256506305711       -2.97182164825023        5.40636169058393
H           -9.35386108802736       -1.81509390332076        4.09062191509187
H           -7.99616149397204       -1.66977437993794        5.20464717544678
H           -9.21692584086503       -4.90524410400591        3.70046190459216
H           -9.41661020951665       -3.72332727566144        2.41011714764262
H           -8.08897607803204       -4.88034945987216        2.34144923682163
H           -6.25605691233738       -4.81192550619401        4.10417252165088
H           -7.45953087960363       -4.69677639394806        5.38269082541853
H           -6.19810639867187       -3.47450633685685        5.26615306608532
H           -5.01399854637416       -3.06126754963008        3.34403770613823
H           -3.88510501398983       -1.68369849861338        1.74311320792691
H           -8.76242361677756       -1.61949952630484        1.92858389441965
H           -9.41811544575655        0.43314361552693        1.51824235437669
H           -9.42721396539386        1.56200652515807        0.16914031645269
H           -8.15586244012156        1.65774196705343        1.38824691217139
H           -8.15935728908064       -1.64610973499428       -1.37329911392425
H           -9.42077687228091       -0.42044117875175       -1.50124548732224
H           -9.42875172721119       -1.54941988531350       -0.15223120628382
H           -8.76371276492343        1.63168125394476       -1.91260168422310
H           -9.17768236096511        2.98422892664055       -5.38975390117615
H           -9.35808364699801        1.82772941618398       -4.07369447045482
H           -8.00218969095567        1.68109651809949       -5.18974501240553
H           -8.08774945012715        4.89189625708846       -2.32657019540290
H           -9.41661999389285        3.73618017518533       -2.39329751775008
H           -9.21760939149805        4.91784833750171       -3.68397571769879
H           -6.20242749854888        3.48402603966747       -5.25389335363247
H           -7.46290034825885        4.70742655484017       -5.36885438171708
H           -6.25752361768103        4.82168048683229       -4.09204710784318
H           -5.01599025135179        3.07001909812930       -3.33340242863989
H           -3.88606400956215        1.69132874535614       -1.73411100598647
H            3.88255780884862       -1.69085162535222       -1.74165952292379
H            5.00932931155633       -3.07024417372264       -3.34253576173359
H            6.19240897741381       -3.48519832895649       -5.26499385538392
H            7.45227407128749       -4.70906823275831       -5.38162736024155
H            6.24898505783495       -4.82247634623973       -4.10278279618554
H            9.41125144334596       -3.73751157672302       -2.40963379984026
H            9.20982093408406       -4.91943855809226       -3.69970226517264
H            8.08217169718767       -4.89284366946655       -2.34047261195184
H            9.16752890897255       -2.98639152456072       -5.40601941825320
H            7.99283860406285       -1.68279017213112       -5.20435797893172
H            9.35059741701550       -1.82958450896288       -4.09059788310694
H            8.75990637279763       -1.63258922625613       -1.92860717305885
H            8.15793981328407       -1.65753708185472        1.37336235734319
H            9.42705350798781       -1.56256826167639        0.15186676178995
H            9.42078157906528       -0.43326023663267        1.50061171502110
H            8.15727953172232        1.64569860700445       -1.38892228876489
H            9.41800077320306        0.41955650922660       -1.51919493479592
H            9.42900966323332        1.54866658195555       -0.17031147060004
H            8.76622583740351        1.61964316612068        1.91167843888770
H            9.22437992393258        4.90585044018002        3.68203729150738
H            8.09385973779743        4.88087055848137        2.32516465773268
H            9.42152240058399        3.72374523101787        2.39146637140495
H            6.20833218499030        3.47547987715038        5.25352328360553
H            7.47016214181886        4.69755055315203        5.36778581318372
H            6.26437730530286        4.81290850981846        4.09146482737121
H            8.00622164487147        1.67062677384241        5.18889911914550
H            9.36182336973951        1.81573902842090        4.07229330454174
H            9.18309871811558        2.97260835864873        5.38825079304529
H            5.02065428217202        3.06260514890364        3.33346394278631
H            3.88860240491608        1.68495334896944        1.73480598562396
