  58
        -98.61586082
 C          7.0343398801       -2.2358519608       -0.7315511911
 C          5.8303035819       -2.8350288580       -1.0554975496
 C          4.6394193679       -2.1569744716       -0.8609261286
 C          4.6360763585       -0.8777780167       -0.3166425313
 C          5.8608607361       -0.2558437507       -0.0557003011
 C          7.0512867848       -0.9374773679       -0.2513933656
 O          5.9199475313        1.0380729463        0.3831003635
 C          4.8044707590        1.8034168776        0.1290101022
 C          4.9687997967        3.1779712308        0.1427321846
 C          3.8883329659        4.0075221900       -0.1048077754
 C          2.6540619997        3.4544402801       -0.3878802600
 C          2.4849236008        2.0793904936       -0.4137123772
 C          3.5517122430        1.2358088258       -0.1352366966
 N          3.4449176587       -0.1715748356       -0.0763201173
 C          2.2939154751       -0.8371052192        0.2998760935
 C          2.3978017126       -2.0420531044        1.0489985915
 C          1.2545698367       -2.6810146398        1.4303383887
 C          0.0031054022       -2.1391882756        1.0788362666
 C         -1.2464245824       -2.6932961408        1.4168052395
 C         -2.3914762713       -2.0584429120        1.0332679644
 C         -2.2898058884       -0.8417493725        0.3042677823
 N         -3.4453065762       -0.1715469082       -0.0548836843
 C         -4.6191458501       -0.8827631491       -0.3535794826
 C         -4.5884159683       -2.1417118102       -0.9423153135
 C         -5.7633971385       -2.8259053956       -1.2014018587
 C         -6.9850153132       -2.2527228946       -0.8977171897
 C         -7.0341222832       -0.9737742585       -0.3694260639
 C         -5.8599041730       -0.2865395862       -0.1082736550
 O         -5.9516584652        0.9874329614        0.3810090653
 C         -4.8361839045        1.7750245830        0.2087999786
 C         -5.0160220675        3.1449418640        0.2947365016
 C         -3.9364153690        3.9975398008        0.1367840885
 C         -2.6861551284        3.4728488172       -0.1291872324
 C         -2.5012273993        2.1030319012       -0.2277189554
 C         -3.5682849408        1.2349053783       -0.0407517866
 N         -1.1332140019       -0.3000328987       -0.0036060842
 C          0.0018074454       -0.9109453882        0.3611120874
 N          1.1348093097       -0.3008548613       -0.0096438891
 H          7.9626359622       -2.7675797002       -0.8697569868
 H          5.8118198661       -3.8338610036       -1.4633195730
 H          3.7007048310       -2.6204532144       -1.1240164413
 H          7.9761561169       -0.4349027638       -0.0181165746
 H          5.9480429055        3.5744544357        0.3593816164
 H          4.0200120410        5.0782350717       -0.0824567260
 H          1.8079788989        4.0919113550       -0.5933873372
 H          1.5227756372        1.6446592238       -0.6215245730
 H          3.3668227898       -2.4158322412        1.3398845459
 H          1.2949355489       -3.5901988798        2.0151488890
 H         -1.2841289852       -3.6084859416        1.9923611733
 H         -3.3608205210       -2.4428894629        1.3091433503
 H         -3.6357193407       -2.5843612172       -1.1907988846
 H         -5.7183363792       -3.8087553422       -1.6445553464
 H         -7.9016115176       -2.7888580707       -1.0878712964
 H         -7.9725446839       -0.4911722544       -0.1479819282
 H         -6.0069805045        3.5192421589        0.4969638782
 H         -4.0808700687        5.0639245973        0.2159533184
 H         -1.8396686406        4.1284731365       -0.2632331077
 H         -1.5272747008        1.6893450839       -0.4241326135
