  58
        -98.54488699
 C          6.7100374839       -2.5463558695       -1.1633813902
 C          5.4453570905       -3.0974504533       -1.0433641904
 C          4.3714519177       -2.3118571226       -0.6686099697
 C          4.5416744354       -0.9552837325       -0.3954176213
 C          5.8190434712       -0.3978823544       -0.5700856716
 C          6.8916203248       -1.1916356455       -0.9398915487
 O          6.0557449481        0.9368238737       -0.3955196882
 C          4.9680688671        1.7478701191       -0.2109013221
 C          5.1962090090        3.1137636886       -0.2166285177
 C          4.1450223625        3.9952215831       -0.0274978053
 C          2.8657062590        3.5034179100        0.1642148753
 C          2.6302468236        2.1405409575        0.1745386057
 C          3.6737847861        1.2386638404       -0.0150715223
 N          3.4862047171       -0.1430712379        0.0032804803
 C          2.3190081514       -0.7203354963        0.5367833194
 C          2.4180260743       -1.6749472253        1.5362039363
 C          1.2488231282       -2.2017214061        2.0735393854
 C          0.0018076562       -1.7490886896        1.6189556714
 C         -1.2441135850       -2.2033444912        2.0751254178
 C         -2.4145089266       -1.6773418000        1.5397285308
 C         -2.3179593376       -0.7205986801        0.5422328729
 N         -3.4870364559       -0.1450353509        0.0108693968
 C         -4.5360822949       -0.9596690127       -0.3995267816
 C         -4.3586061335       -2.3146716103       -0.6757790033
 C         -5.4259491230       -3.1023493093       -1.0648570725
 C         -6.6910509945       -2.5547997443       -1.1971847248
 C         -6.8796751170       -1.2018126134       -0.9691169365
 C         -5.8138822738       -0.4062103494       -0.5834247416
 O         -6.0580557269        0.9263044545       -0.4023921195
 C         -4.9760600492        1.7406356950       -0.1994839409
 C         -5.2109508019        3.1053658844       -0.1916144143
 C         -4.1653863430        3.9899194642        0.0144473416
 C         -2.8848004739        3.5023935741        0.2082589505
 C         -2.6427956724        2.1405309193        0.2062360538
 C         -3.6808774602        1.2356760659        0.0013163439
 N         -1.1388242348       -0.2802567986        0.0821085000
 C          0.0003450044       -0.7456003584        0.5821974597
 N          1.1385963556       -0.2824388305        0.0777424955
 H          7.5506826468       -3.1609026526       -1.4437949366
 H          5.2892058965       -4.1461041748       -1.2438703937
 H          3.3860087966       -2.7424807803       -0.5881240640
 H          7.8588509408       -0.7273838194       -1.0472662488
 H          6.2056969364        3.4625944792       -0.3642952276
 H          4.3307743022        5.0578834472       -0.0273622141
 H          2.0403244949        4.1824022055        0.3123640187
 H          1.6324530808        1.7569173237        0.3099819987
 H          3.3865077868       -1.9719656136        1.9084503397
 H          1.2930251393       -2.9430279658        2.8562602413
 H         -1.2864154400       -2.9459060129        2.8567521780
 H         -3.3823321299       -1.9767033068        1.9118659780
 H         -3.3725632302       -2.7425351949       -0.5869850647
 H         -5.2640457544       -4.1497434906       -1.2672250998
 H         -7.5261748418       -3.1706863797       -1.4907206260
 H         -7.8471384340       -0.7401326315       -1.0851850888
 H         -6.2212550239        3.4508717671       -0.3421709717
 H         -4.3563054085        5.0516332233        0.0246679533
 H         -2.0638331437        4.1839103023        0.3684808860
 H         -1.6441765923        1.7604929457        0.3446786942
