  56
  -83.5797311367000       0.254164186376650      !
 C         -7.8919506366        0.0035407399       -0.1075798680
 C         -7.4306380453        0.8684636780        0.8955226325
 C         -6.0900244114        1.0153153558        1.1197962460
 C         -5.1471752798        0.3009573634        0.3483258200
 C         -3.7633108446        0.4401945095        0.5487487573
 C         -2.8466287180       -0.2691625093       -0.2062554299
 C         -1.4112459685       -0.1157185840       -0.0192934741
 C         -0.6069738884       -1.2708268287        0.2330664466
 C         -1.1858281113       -2.5212557584        0.4701856572
 C         -0.4103851141       -3.6420437739        0.7542268183
 C          0.9593779752       -3.5213204009        0.8490635129
 C          1.5585685365       -2.2778723462        0.6700594811
 C          0.8089356168       -1.1430491704        0.3443085757
 C          1.4168622226        0.1439436896        0.2186283868
 C          2.8664440415        0.2702794982        0.2983896172
 C          3.4624837253        1.1257749305        1.2583610470
 C          4.8168647217        1.2442528719        1.3491410853
 C          5.6723371007        0.5384106320        0.4725809517
 C          7.0732464633        0.6539420499        0.5297529172
 C          7.8684401062       -0.0436042311       -0.3399579420
 C          7.2944747583       -0.8885121307       -1.3019549099
 C          5.9367177103       -1.0255588383       -1.3801547506
 C          5.0890289704       -0.3195514541       -0.4983582661
 C          3.6905589620       -0.4406300117       -0.5544595244
 C          0.6108377638        1.3047711779        0.0058195263
 C          1.1866855076        2.5632169191       -0.1954063272
 C          0.4107544407        3.6895069349       -0.4542855001
 C         -0.9569412660        3.5660557367       -0.5682964844
 C         -1.5530812032        2.3158914781       -0.4274126360
 C         -0.8058914725        1.1762592119       -0.1146357696
 C         -3.3327597521       -1.1574824850       -1.1991048643
 C         -4.6682182596       -1.2963023592       -1.4266813094
 C         -5.6175574701       -0.5789614842       -0.6630093700
 C         -7.0026569303       -0.7054095348       -0.8706993484
 H         -8.9546283404       -0.0993000761       -0.2721780988
 H         -8.1457509030        1.4181645539        1.4901417595
 H         -5.7299795878        1.6819828238        1.8904928195
 H         -3.4153450014        1.0899166363        1.3398477720
 H         -2.2600883462       -2.6216583310        0.4501172751
 H         -0.8906472003       -4.5958370822        0.9144037233
 H          1.5721518475       -4.3791966853        1.0825979148
 H          2.6252617210       -2.1874809044        0.8065587242
 H          2.8197676141        1.6517721836        1.9497532950
 H          5.2601508428        1.8798626549        2.1031941526
 H          7.5117660755        1.3059829600        1.2723222618
 H          8.9432903688        0.0525969995       -0.2923417641
 H          7.9362653721       -1.4295236921       -1.9822297442
 H          5.4891926859       -1.6756487747       -2.1188305135
 H          3.2531782951       -1.0777588394       -1.3105732851
 H          2.2603653195        2.6663574661       -0.1673407560
 H          0.8896789120        4.6485158022       -0.5838318984
 H         -1.5707697244        4.4266517678       -0.7888760690
 H         -2.6163657674        2.2270608754       -0.5870175450
 H         -2.6162867669       -1.6935364495       -1.8049381960
 H         -5.0235296667       -1.9563121880       -2.2056193366
 H         -7.3537794109       -1.3744953642       -1.6436090274
  56
  -83.5797204832000       0.251314962333727      !
 C         -7.8883337442       -0.2079603094        0.1559731406
 C         -7.3629875555       -0.3686976037        1.4468168735
 C         -6.0109189188       -0.3646244785        1.6490158007
 C         -5.1202032441       -0.1986196408        0.5655157429
 C         -3.7263826087       -0.1925378937        0.7426452576
 C         -2.8605627874       -0.0185914753       -0.3223296939
 C         -1.4164027380       -0.0118784957       -0.1391787436
 C         -0.7667311713       -1.1170424548        0.4938870666
 C         -1.4748023350       -2.2579119966        0.8847031358
 C         -0.8364557447       -3.3547638601        1.4562669287
 C          0.5348732592       -3.3540221733        1.5940943680
 C          1.2714471728       -2.2528831073        1.1671177883
 C          0.6523798159       -1.1130102729        0.6443253469
 C          1.4185663724       -0.0033950378        0.1689259789
 C          2.8651537336        0.0017226443        0.3333821576
 C          3.4364339284       -0.1599209775        1.6209501114
 C          4.7863938037       -0.1303824474        1.8006316283
 C          5.6656112606        0.0424516093        0.7068797100
 C          7.0633742604        0.0724892970        0.8600269838
 C          7.8822466759        0.2452569510       -0.2242172351
 C          7.3353140192        0.3939129505       -1.5074464744
 C          5.9806622667        0.3692907770       -1.6890276846
 C          5.1090436072        0.1957454771       -0.5913622210
 C          3.7128660059        0.1765878482       -0.7459174954
 C          0.7680810777        1.1052483399       -0.4574355120
 C          1.4757499060        2.2485674872       -0.8422368842
 C          0.8364523055        3.3495007596       -1.4046667251
 C         -0.5351967738        3.3495433158       -1.5405459570
 C         -1.2708564602        2.2450740515       -1.1207482284
 C         -0.6507483422        1.1017711075       -0.6066580954
 C         -3.4104683590        0.1504042877       -1.6186522933
 C         -4.7573144441        0.1320764596       -1.8202008522
 C         -5.6550821959       -0.0344781129       -0.7406554932
 C         -7.0505259964       -0.0448800664       -0.9153092915
 H         -8.9591916947       -0.2135604196        0.0143028465
 H         -8.0378703447       -0.4956594068        2.2809086539
 H         -5.6014900772       -0.4897422504        2.6416361259
 H         -3.3293775403       -0.2861095333        1.7441509711
 H         -2.5404639113       -2.3028782305        0.7220684567
 H         -1.4200446223       -4.2087184694        1.7662797247
 H          1.0463102602       -4.2073595970        2.0138180733
 H          2.3480956649       -2.2919400130        1.2279048651
 H          2.7745679472       -0.2635109947        2.4687383957
 H          5.2074965166       -0.2315359878        2.7916192008
 H          7.4808215198       -0.0445050716        1.8506625410
 H          8.9549250926        0.2671112584       -0.0988704183
 H          7.9955719393        0.5285743911       -2.3520100623
 H          5.5543334079        0.4846939594       -2.6753087911
 H          3.2987589764        0.2657256125       -1.7407439174
 H          2.5419316790        2.2917199074       -0.6829930101
 H          1.4196432276        4.2051888626       -1.7105693264
 H         -1.0475932309        4.2065755645       -1.9512629271
 H         -2.3476830985        2.2839114779       -1.1808588710
 H         -2.7341221028        0.2536990419       -2.4550832797
 H         -5.1617294123        0.2391151517       -2.8171572583
 H         -7.4509461083        0.0801895202       -1.9116783721
  56
  -83.5794119697000       0.181315677782067      !
 C         -7.8886403667       -0.3184848520        0.1345106282
 C         -7.3587299035       -0.6167854663        1.3983891779
 C         -6.0070994314       -0.6010040675        1.6034492410
 C         -5.1207459464       -0.2898228625        0.5481966654
 C         -3.7284742515       -0.2718679395        0.7280644518
 C         -2.8623234810        0.0261770917       -0.3126486027
 C         -1.4226419527        0.0346764843       -0.1295148773
 C         -0.7642203917       -1.0846880070        0.4744141472
 C         -1.4534423558       -2.2532615293        0.8100721757
 C         -0.8102530973       -3.3386013031        1.3999133201
 C          0.5495710958       -3.2944201110        1.6202480341
 C          1.2753068180       -2.1742055793        1.2272870132
 C          0.6504721266       -1.0579041510        0.6607726405
 C          1.4118171071        0.0446625532        0.1707837721
 C          2.8642041342        0.0500844585        0.3342384469
 C          3.4282784891        0.0308111836        1.6328627688
 C          4.7789808515        0.0687736612        1.8112049915
 C          5.6594832657        0.0937681591        0.7063714764
 C          7.0586037657        0.1184082025        0.8578288954
 C          7.8801686163        0.1256364176       -0.2368637088
 C          7.3363689951        0.1098979722       -1.5302960409
 C          5.9815478470        0.0963376965       -1.7105973931
 C          5.1069110245        0.0912838511       -0.6022456736
 C          3.7092540042        0.0842462420       -0.7561616225
 C          0.7648662780        1.1459626773       -0.4641164590
 C          1.4832110376        2.2665892761       -0.8952974304
 C          0.8425373822        3.3863795312       -1.4162763734
 C         -0.5344486745        3.4285957489       -1.4582832222
 C         -1.2751209718        2.3343094123       -1.0178726405
 C         -0.6580765632        1.1638299461       -0.5681323828
 C         -3.4198311795        0.3195508962       -1.5849605858
 C         -4.7660039522        0.3052454883       -1.7865369307
 C         -5.6608476467        0.0073429870       -0.7322841250
 C         -7.0550572021       -0.0123484741       -0.9090889185
 H         -8.9591276062       -0.3321892589       -0.0091508656
 H         -8.0296576360       -0.8584384905        2.2100227451
 H         -5.5943483080       -0.8306808772        2.5756940345
 H         -3.3315831476       -0.4524604117        1.7173861445
 H         -2.5070799508       -2.3310660460        0.5909541055
 H         -1.3822476797       -4.2146058192        1.6673607686
 H          1.0615459791       -4.1311372238        2.0716817506
 H          2.3477352263       -2.1764274555        1.3482046172
 H          2.7623880274        0.0236998669        2.4840223397
 H          5.1982262161        0.0819978663        2.8076220974
 H          7.4731711769        0.1274380567        1.8561573861
 H          8.9531852630        0.1404838789       -0.1130514012
 H          7.9995941860        0.1090365425       -2.3831546928
 H          5.5574628348        0.0883864526       -2.7047996715
 H          3.2943004319        0.0742745705       -1.7547045531
 H          2.5584096574        2.2739686083       -0.8036572118
 H          1.4294174903        4.2265708338       -1.7564238102
 H         -1.0472639543        4.3071877817       -1.8202931645
 H         -2.3518887371        2.4047006420       -1.0117204311
 H         -2.7478233282        0.5120744360       -2.4089533476
 H         -5.1731785533        0.5106418382       -2.7667998729
 H         -7.4591102025        0.2180456631       -1.8849439212
  56
  -83.5793077569000       0.162383714233736      !
 C         -7.8516405989       -0.5735745880        0.2554127516
 C         -7.2584581244       -1.0045664147        1.4512675859
 C         -5.9017370557       -0.9515754412        1.6089926859
 C         -5.0738684302       -0.4639463148        0.5737851906
 C         -3.6764413855       -0.4050183565        0.7045415019
 C         -2.8715860170        0.0811024650       -0.3109670789
 C         -1.4238775619        0.1352578734       -0.1750220353
 C         -0.6933921111       -1.0387537639        0.1887063488
 C         -1.3214904638       -2.2775571779        0.3479319935
 C         -0.6224699550       -3.3980227793        0.7884167995
 C          0.7212578965       -3.2964400648        1.0799085959
 C          1.3854311004       -2.0913760902        0.8688516459
 C          0.7210151713       -0.9674608841        0.3686383369
 C          1.4152175012        0.2443533340        0.0653446119
 C          2.8625416581        0.3147994883        0.2045247612
 C          3.4484140803        1.3308716681        1.0017852600
 C          4.7987038212        1.4105562220        1.1606982850
 C          5.6651699190        0.4982962910        0.5159189739
 C          7.0637647258        0.5648928215        0.6477297995
 C          7.8705605560       -0.3350580423        0.0039599458
 C          7.3096421112       -1.3403915727       -0.7976680380
 C          5.9536399017       -1.4333494863       -0.9433435214
 C          5.0941865065       -0.5210068722       -0.2925752842
 C          3.6970960132       -0.5931715885       -0.4222210142
 C          0.6910054673        1.3981359705       -0.3655197778
 C          1.3434410696        2.5667765363       -0.7706245700
 C          0.6338606142        3.7195839106       -1.0960895967
 C         -0.7424058312        3.7241327079       -1.0108874427
 C         -1.4194358472        2.5537804792       -0.6781827339
 C         -0.7342230481        1.3629959350       -0.4177476271
 C         -3.4904126088        0.5231577845       -1.5081749206
 C         -4.8418627613        0.4614518113       -1.6667500761
 C         -5.6776210481       -0.0254367040       -0.6353624648
 C         -7.0761601910       -0.0938201808       -0.7663724341
 H         -8.9253441142       -0.6224005873        0.1480411554
 H         -7.8848913143       -1.3791228628        2.2477524934
 H         -5.4398626149       -1.2844912639        2.5277623889
 H         -3.2287633279       -0.7120998191        1.6396779496
 H         -2.3715417221       -2.3738625441        0.1180348437
 H         -1.1425540734       -4.3363979869        0.9107249316
 H          1.2677910794       -4.1473508982        1.4583968613
 H          2.4364418074       -2.0250515500        1.1048919646
 H          2.7957167206        2.0200519051        1.5183811282
 H          5.2296832924        2.1752772545        1.7917481341
 H          7.4914566934        1.3417801509        1.2657881987
 H          8.9441590008       -0.2767039543        0.1085390399
 H          7.9605506564       -2.0416403962       -1.2995286828
 H          5.5169169513       -2.2074153668       -1.5584741929
 H          3.2733165451       -1.3529857325       -1.0642461080
 H          2.4205431472        2.5783700862       -0.8376113274
 H          1.1691638649        4.6079884328       -1.3965191686
 H         -1.3027993277        4.6239727323       -1.2164190854
 H         -2.4967952077        2.5717079352       -0.6172408622
 H         -2.8613067678        0.8719273099       -2.3147633083
 H         -5.2972592733        0.7788317817       -2.5945130246
 H         -7.5291819972        0.2408666523       -1.6890702969
  56
  -83.5784176811000       6.331286333896963E-002 !
 C         -7.7887580300       -0.6434142917       -0.5916931957
 C         -7.4875900586       -0.7425998031        0.7744169536
 C         -6.2035263714       -0.5768091009        1.2143495727
 C         -5.1580300956       -0.3070873589        0.3040846579
 C         -3.8234340852       -0.1660059039        0.7232145205
 C         -2.8048164378        0.0851781007       -0.1783680189
 C         -1.4024243602        0.1614048581        0.2001890817
 C         -0.7640498312       -0.9232934694        0.8809718258
 C         -1.4746999497       -2.0539027281        1.2942201695
 C         -0.8459925630       -3.1306967175        1.9129863469
 C          0.5227244441       -3.1247672264        2.0707312490
 C          1.2653785958       -2.0406477056        1.6122172316
 C          0.6559558179       -0.9172298877        1.0448187381
 C          1.4263355076        0.1681749475        0.5228273926
 C          2.8811066906        0.0972278903        0.4846727397
 C          3.6562226210       -0.1005064770        1.6535943162
 C          5.0145992298       -0.1955140298        1.5867534430
 C          5.6938731013       -0.1221407340        0.3493320720
 C          7.0908403009       -0.2519916047        0.2435352157
 C          7.7096909279       -0.1778465803       -0.9757179589
 C          6.9573011121        0.0355599482       -2.1408067003
 C          5.5993833148        0.1717927812       -2.0709158212
 C          4.9306140821        0.0942744145       -0.8292850902
 C          3.5356645145        0.2131615775       -0.7286955161
 C          0.7726365215        1.3093584156       -0.0362065363
 C          1.4824722147        2.4678274470       -0.3670116188
 C          0.8377023794        3.5968870601       -0.8628529593
 C         -0.5342581144        3.5991735775       -1.0029546558
 C         -1.2680786225        2.4686963263       -0.6549219541
 C         -0.6422388030        1.3082181401       -0.1908030877
 C         -3.1397124047        0.2407316642       -1.5488086136
 C         -4.4210978530        0.0926498836       -1.9829050354
 C         -5.4689659872       -0.1937812794       -1.0776489947
 C         -6.7987051394       -0.3710095208       -1.4982893441
 H         -8.8074411147       -0.7829872732       -0.9227560206
 H         -8.2809170442       -0.9522819603        1.4771933858
 H         -5.9674815102       -0.6560300057        2.2662091638
 H         -3.6036404649       -0.2197691625        1.7804936388
 H         -2.5358493044       -2.1107792485        1.1099248631
 H         -1.4349152722       -3.9738775669        2.2419469609
 H          1.0284949747       -3.9629351705        2.5264265481
 H          2.3406814316       -2.0825976013        1.6843257186
 H          3.1537792491       -0.1306522377        2.6099050015
 H          5.5967456576       -0.3287203828        2.4880608607
 H          7.6679609828       -0.4167771391        1.1426064579
 H          8.7822574652       -0.2822595115       -1.0498023658
 H          7.4622389845        0.0930788269       -3.0942854495
 H          5.0138829681        0.3373355374       -2.9641958650
 H          2.9587262107        0.3578720695       -1.6316556479
 H          2.5511950949        2.4954426317       -0.2173658484
 H          1.4166615457        4.4721581848       -1.1174897861
 H         -1.0472088065        4.4764480448       -1.3680599856
 H         -2.3446083564        2.4961490567       -0.7311240134
 H         -2.3430925077        0.4356951467       -2.2524265302
 H         -4.6553314040        0.1814508703       -3.0345213507
 H         -7.0250972008       -0.2928724036       -2.5524475476
  56
  -83.5782819531000       5.484230314565872E-002 !
 C         -7.7787608118       -0.7035985205       -0.6048624074
 C         -7.4714666776       -0.8592792565        0.7544296340
 C         -6.1906281722       -0.6824864288        1.1996939431
 C         -5.1538997582       -0.3473186350        0.3009706913
 C         -3.8222355559       -0.1950137428        0.7241698235
 C         -2.8078189559        0.1081489236       -0.1681854458
 C         -1.4071456802        0.1872727080        0.2085917689
 C         -0.7590905613       -0.9005310163        0.8773369534
 C         -1.4568574442       -2.0428560535        1.2796145113
 C         -0.8188500914       -3.1137181002        1.8995612063
 C          0.5480633456       -3.0902917816        2.0704093776
 C          1.2801752276       -1.9977574692        1.6161202623
 C          0.6606557014       -0.8828307514        1.0422494102
 C          1.4236997965        0.2038941286        0.5139781753
 C          2.8804199854        0.1322416736        0.4763788966
 C          3.6513940259       -0.0272749362        1.6533939200
 C          5.0089591015       -0.1376325924        1.5924279955
 C          5.6886887225       -0.1225772548        0.3534605770
 C          7.0836683487       -0.2795838437        0.2542721198
 C          7.7033153975       -0.2692161017       -0.9664482707
 C          6.9543616675       -0.0924453826       -2.1399467764
 C          5.5990889941        0.0711061097       -2.0766453087
 C          4.9291110925        0.0570618291       -0.8335653826
 C          3.5349633112        0.1975600267       -0.7391537092
 C          0.7654780864        1.3402765698       -0.0449454801
 C          1.4737031070        2.4944739672       -0.3954642105
 C          0.8222345925        3.6269410760       -0.8736297038
 C         -0.5532383908        3.6374089978       -0.9743819926
 C         -1.2835220031        2.5078186358       -0.6147399803
 C         -0.6518806337        1.3412172419       -0.1761601916
 C         -3.1504277889        0.3133981307       -1.5309405923
 C         -4.4302120188        0.1631147783       -1.9679451709
 C         -5.4708570396       -0.1813542073       -1.0741298782
 C         -6.7972962305       -0.3675632627       -1.4998993310
 H         -8.7950925669       -0.8499463229       -0.9402059935
 H         -8.2576369269       -1.1202961378        1.4481123260
 H         -5.9501431714       -0.8043939899        2.2465199239
 H         -3.6019052567       -0.2793049605        1.7792882810
 H         -2.5149798615       -2.1157467591        1.0850391117
 H         -1.3993815898       -3.9660443797        2.2195506992
 H          1.0606994235       -3.9223094945        2.5295558645
 H          2.3554614136       -2.0252238532        1.6959419332
 H          3.1458379867       -0.0200082037        2.6085529330
 H          5.5892700800       -0.2401567235        2.4988820568
 H          7.6576857005       -0.4156028527        1.1601052930
 H          8.7736051644       -0.3979395303       -1.0355826623
 H          7.4595168651       -0.0885279900       -3.0949491521
 H          5.0165809464        0.2076429449       -2.9767893416
 H          2.9598559996        0.3147612748       -1.6473142120
 H          2.5463835419        2.5140059457       -0.2755192225
 H          1.3986741541        4.4988286532       -1.1451552251
 H         -1.0714882181        4.5190173119       -1.3211108142
 H         -2.3615258031        2.5412665167       -0.6636136599
 H         -2.3591888183        0.5463616123       -2.2290037320
 H         -4.6685918738        0.2921022334       -3.0144439840
 H         -7.0288313078       -0.2443179704       -2.5486357070
  56
  -83.5772131163000       1.769751551268291E-002 !
 C         -7.6364411411       -0.9215350396       -0.9566946690
 C         -7.3749383903       -1.3195011126        0.3621641622
 C         -6.1330812095       -1.1411662384        0.9066912830
 C         -5.0907271829       -0.5590541791        0.1523109071
 C         -3.7955238644       -0.3939895463        0.6747246574
 C         -2.7758190046        0.1593445112       -0.0798490692
 C         -1.3984697080        0.2689513737        0.3683778993
 C         -0.6726766004       -0.8692181443        0.8397086591
 C         -1.2753053560       -2.1055636909        1.0890443592
 C         -0.5534450435       -3.1753205658        1.6110018296
 C          0.7937636780       -3.0376477399        1.8711843683
 C          1.4369292703       -1.8451482843        1.5535555123
 C          0.7406060284       -0.7661272463        1.0035505003
 C          1.4294384359        0.4239066542        0.6073781231
 C          2.8755929137        0.3722845204        0.4380125844
 C          3.7542999048        1.2784918019        1.0793985764
 C          5.0987221724        1.2274930040        0.8559798981
 C          5.6578984872        0.2882452062       -0.0397875317
 C          7.0357526516        0.2358119241       -0.3213085936
 C          7.5350569039       -0.6871620420       -1.2007036129
 C          6.6779799600       -1.6022447608       -1.8314937932
 C          5.3364387286       -1.5828153400       -1.5732924269
 C          4.7896629244       -0.6395001515       -0.6753290930
 C          3.4140443784       -0.5841048870       -0.4047485521
 C          0.6913435301        1.6027905846        0.2907376182
 C          1.3060573728        2.8205484727       -0.0195998447
 C          0.5585256428        3.9695374378       -0.2584148795
 C         -0.8187203540        3.9212896146       -0.2019970867
 C         -1.4571175234        2.7050168159        0.0259074102
 C         -0.7310100294        1.5294052093        0.2271619719
 C         -3.0787653674        0.6081917350       -1.3934015064
 C         -4.3200076022        0.4487601684       -1.9264295322
 C         -5.3628837338       -0.1473014342       -1.1799621959
 C         -6.6493065071       -0.3438416021       -1.7108224481
 H         -8.6218067790       -1.0729165755       -1.3725519514
 H         -8.1649464237       -1.7704987791        0.9450308799
 H         -5.9282023639       -1.4510574385        1.9218233615
 H         -3.6158457428       -0.6675375592        1.7050362764
 H         -2.3203777825       -2.2449910486        0.8623357272
 H         -1.0579007223       -4.1085950885        1.8128445383
 H          1.3578224256       -3.8519996797        2.3006696224
 H          2.4961079491       -1.7494931183        1.7401854375
 H          3.3462194397        1.9834213486        1.7895063602
 H          5.7622008553        1.9107262421        1.3678749903
 H          7.6939327756        0.9415727899        0.1657358130
 H          8.5929077165       -0.7172860351       -1.4171574475
 H          7.0888612914       -2.3212189911       -2.5254224131
 H          4.6700760217       -2.2841752463       -2.0552414642
 H          2.7562074593       -1.2818544948       -0.9043259977
 H          2.3814571825        2.8743659555       -0.0826365266
 H          1.0652958765        4.8972203850       -0.4795618454
 H         -1.4071022648        4.8136778083       -0.3542610466
 H         -2.5361390957        2.6706654759        0.0481884379
 H         -2.2833047872        1.0410821821       -1.9828581526
 H         -4.5241407942        0.7666125930       -2.9392978491
 H         -6.8451540657       -0.0319992977       -2.7272266022
  56
  -83.5770548678000       1.496877727650939E-002 !
 C         -7.6920678755       -0.7425586157       -0.9139373072
 C         -7.4753694983       -0.9368212478        0.4576912080
 C         -6.2289306366       -0.7650352922        0.9937471161
 C         -5.1364609380       -0.3956839684        0.1781565610
 C         -3.8390318777       -0.2397799990        0.6968448165
 C         -2.7698947541        0.1005621325       -0.1151370417
 C         -1.3961796213        0.2008230639        0.3426437161
 C         -0.7495871049       -0.8729403914        1.0358701795
 C         -1.4424780311       -2.0147904525        1.4466118391
 C         -0.8051497857       -3.0663383950        2.0995560307
 C          0.5581664048       -3.0257402184        2.2948402243
 C          1.2885709580       -1.9384801940        1.8255884708
 C          0.6689613017       -0.8431136774        1.2163885474
 C          1.4294876487        0.2335792409        0.6642773684
 C          2.8802701037        0.1399809893        0.5382642117
 C          3.7386643536       -0.0210934819        1.6518560549
 C          5.0860829865       -0.1509694572        1.4836728922
 C          5.6663441379       -0.1546845803        0.1952157087
 C          7.0470535073       -0.3310546747       -0.0139470118
 C          7.5672012318       -0.3368391254       -1.2802241612
 C          6.7296945228       -0.1579131494       -2.3921416105
 C          5.3863662324        0.0251915608       -2.2222895919
 C          4.8180396795        0.0284140519       -0.9294609943
 C          3.4387741556        0.1903585078       -0.7253476234
 C          0.7659519764        1.3788850331        0.1305781392
 C          1.4703504900        2.5418105312       -0.1980436266
 C          0.8124500135        3.6812468889       -0.6487554614
 C         -0.5635387800        3.6867538226       -0.7490006573
 C         -1.2881241358        2.5448118796       -0.4186677912
 C         -0.6493268588        1.3740174399       -0.0037664614
 C         -3.0233747133        0.3386697013       -1.4930978343
 C         -4.2674830254        0.1869720804       -2.0211446417
 C         -5.3621720312       -0.1928133954       -1.2099542007
 C         -6.6548345547       -0.3745761616       -1.7301173743
 H         -8.6824401799       -0.8838147428       -1.3213139774
 H         -8.3041764361       -1.2241063163        1.0884098733
 H         -6.0591389595       -0.9178045794        2.0502685909
 H         -3.6943606220       -0.3428708894        1.7631923941
 H         -2.4956091583       -2.1029676799        1.2333053550
 H         -1.3830433037       -3.9172198246        2.4282798715
 H          1.0695690124       -3.8412321689        2.7841662297
 H          2.3624862393       -1.9541679925        1.9229789522
 H          3.3129247866        0.0045382649        2.6448835879
 H          5.7349184462       -0.2548447926        2.3423285484
 H          7.6900823655       -0.4694925709        0.8438777712
 H          8.6266975727       -0.4809094899       -1.4336521071
 H          7.1569642766       -0.1680404126       -3.3844019237
 H          4.7352492708        0.1640137471       -3.0737383791
 H          2.7954305078        0.3158579799       -1.5853665367
 H          2.5436965505        2.5601921313       -0.0827076627
 H          1.3837087098        4.5619949385       -0.9019908669
 H         -1.0859913674        4.5732703098       -1.0763036354
 H         -2.3661703459        2.5704188256       -0.4734047984
 H         -2.1901699496        0.6015628891       -2.1289183476
 H         -4.4353580976        0.3431242243       -3.0775907557
 H         -6.8156683123       -0.2200860376       -2.7878709628
