  54
        -89.38583570
 N         -3.3648591235       -2.7959276206       -2.1445355244
 C         -2.4112707016       -2.3368414851       -1.7039969926
 C         -1.2094199603       -1.7703541267       -1.2217913202
 C         -0.0008648403       -2.3462824524       -1.5965385502
 C          1.2067048740       -1.7718383768       -1.2169863419
 C          2.4115700666       -2.3388440445       -1.6908544800
 N          3.3694671755       -2.8028140974       -2.1163365266
 C          1.2103048303       -0.5945759061       -0.4383498355
 N          2.4060577461       -0.0258406213       -0.0223049804
 C          3.4467345421       -0.6930467010        0.6108688735
 C          3.5186201379       -2.0073206999        1.0436683773
 C          4.6717919021       -2.4091024395        1.6916732518
 C          5.7217891086       -1.5250830058        1.9218427533
 C          5.6370211658       -0.2042228311        1.5283359575
 C          4.4891459314        0.2206796159        0.8740418027
 C          4.0578326492        1.4971263217        0.3714655503
 C          4.6510743924        2.7508417736        0.3215472730
 C          3.9550914428        3.7899266085       -0.2649897236
 C          2.6932331296        3.5852146361       -0.8150725694
 C          2.0853973843        2.3438667204       -0.7794480672
 C          2.7658730816        1.3061593632       -0.1638123817
 C         -0.0026109682       -0.0203564999       -0.0753617918
 C         -1.2152435657       -0.5938997402       -0.4420172275
 N         -2.4108802688       -0.0241231512       -0.0282111492
 C         -3.4575913026       -0.6898509697        0.5971091455
 C         -3.5416467337       -2.0080160960        1.0156531480
 C         -4.6994330310       -2.4070996426        1.6572607533
 C         -5.7422954838       -1.5169274255        1.8955942037
 C         -5.6450503067       -0.1924096437        1.5176418134
 C         -4.4924754105        0.2297080539        0.8699453689
 C         -4.0496681232        1.5085032648        0.3836158363
 C         -4.6312800609        2.7682117607        0.3508346034
 C         -3.9261112564        3.8084027670       -0.2225890931
 C         -2.6672456038        3.5988735089       -0.7776345508
 C         -2.0708809066        2.3516200035       -0.7584749341
 C         -2.7595754127        1.3126684245       -0.1541247817
 H         -0.0002855938       -3.2366360224       -2.2086303388
 H          2.7063898098       -2.7023631294        0.8926440921
 H          4.7552593771       -3.4306228288        2.0300919867
 H          6.6080409035       -1.8785620434        2.4267013348
 H          6.4403337350        0.4885773118        1.7269463308
 H          5.6383455600        2.9038899481        0.7294495575
 H          4.3970073610        4.7738170072       -0.3101920850
 H          2.1793281761        4.4101174192       -1.2853570287
 H          1.1188116757        2.1926179449       -1.2346435332
 H         -0.0029621427        0.8602596027        0.5492399048
 H         -2.7357170669       -2.7089000311        0.8584346703
 H         -4.7929423260       -3.4321304626        1.9822264325
 H         -6.6326733065       -1.8684735150        2.3944889231
 H         -6.4421423985        0.5053790420        1.7236724738
 H         -5.6169148868        2.9250458964        0.7612420412
 H         -4.3587069119        4.7969120457       -0.2542516043
 H         -2.1459866478        4.4248942084       -1.2377819928
 H         -1.1064967924        2.1974329104       -1.2172187789
  54
        -89.38565451
 N         -3.2856154208       -2.1549602535       -2.8584279791
 C         -2.3441033674       -1.7141550189       -2.3750865604
 C         -1.1564712893       -1.2376196060       -1.7747213982
 C          0.0654060500       -1.6928553772       -2.2569591421
 C          1.2541782872       -1.3242507055       -1.6377452471
 C          2.4780386661       -1.7300417830       -2.2168007163
 N          3.4518415271       -2.0407453483       -2.7357403267
 C          1.2232387051       -0.4974140087       -0.4944190116
 N          2.3967561780       -0.1351969573        0.1508272365
 C          3.4114292682       -0.9990569050        0.5407257626
 C          3.4555738066       -2.3833144920        0.4978861934
 C          4.5839057712       -3.0063539949        0.9977430403
 C          5.6352430127       -2.2761557960        1.5441048591
 C          5.5765463589       -0.8989691810        1.6260422336
 C          4.4541073976       -0.2520678505        1.1281449247
 C          4.0504621082        1.1275972003        1.0838016418
 C          4.6593311633        2.3097823863        1.4809866099
 C          3.9918670616        3.5006941305        1.2711086741
 C          2.7425470769        3.5222532272        0.6584517082
 C          2.1178479601        2.3572726777        0.2518026422
 C          2.7725455180        1.1583001640        0.4850037664
 C         -0.0013112191       -0.0284883926       -0.0327833588
 C         -1.1934592233       -0.3739198705       -0.6592361212
 N         -2.4003461636        0.1094172003       -0.1753594263
 C         -2.8205904023        0.0639812747        1.1465671275
 C         -2.1916249505       -0.4783031830        2.2560651668
 C         -2.8589740700       -0.4230945006        3.4662491904
 C         -4.1247901100        0.1454937410        3.5724837100
 C         -4.7665833384        0.6616389537        2.4636374139
 C         -4.1151307287        0.6191973138        1.2389295388
 C         -4.4835828722        1.0338952130       -0.0879474132
 C         -5.6041560831        1.6648820407       -0.6098326742
 C         -5.6242701578        1.9662406934       -1.9572932681
 C         -4.5370886825        1.6686048487       -2.7736377126
 C         -3.4100631593        1.0421632022       -2.2749721018
 C         -3.4034694282        0.7004781771       -0.9321689307
 H          0.0912542384       -2.3396293624       -3.1220321781
 H          2.6411094187       -2.9672892899        0.0960841612
 H          4.6466650502       -4.0834594020        0.9661758978
 H          6.5016264956       -2.7992814558        1.9196118559
 H          6.3809095698       -0.3329652513        2.0706899840
 H          5.6365711184        2.2933407302        1.9382028186
 H          4.4463723565        4.4313969285        1.5751000216
 H          2.2503615219        4.4686354764        0.4915084563
 H          1.1583632322        2.3930967671       -0.2423335139
 H         -0.0270616936        0.6181604917        0.8308894814
 H         -1.2196249593       -0.9434619819        2.1865720995
 H         -2.3872559077       -0.8347064214        4.3459170336
 H         -4.6123934172        0.1715558699        4.5351942181
 H         -5.7563852202        1.0845649565        2.5408404682
 H         -6.4361667703        1.9171753960        0.0295790841
 H         -6.4883744278        2.4511708986       -2.3855809634
 H         -4.5706914756        1.9347501795       -3.8191291363
 H         -2.5682252782        0.8377738818       -2.9194365000
