  54
  -89.3858357000000       0.275628021815106      !
 N         -3.3648591235       -2.7959276206       -2.1445355244
 C         -2.4112707016       -2.3368414851       -1.7039969926
 C         -1.2094199603       -1.7703541267       -1.2217913202
 C         -0.0008648403       -2.3462824524       -1.5965385502
 C          1.2067048740       -1.7718383768       -1.2169863419
 C          2.4115700666       -2.3388440445       -1.6908544800
 N          3.3694671755       -2.8028140974       -2.1163365266
 C          1.2103048303       -0.5945759061       -0.4383498355
 N          2.4060577461       -0.0258406213       -0.0223049804
 C          3.4467345421       -0.6930467010        0.6108688735
 C          3.5186201379       -2.0073206999        1.0436683773
 C          4.6717919021       -2.4091024395        1.6916732518
 C          5.7217891086       -1.5250830058        1.9218427533
 C          5.6370211658       -0.2042228311        1.5283359575
 C          4.4891459314        0.2206796159        0.8740418027
 C          4.0578326492        1.4971263217        0.3714655503
 C          4.6510743924        2.7508417736        0.3215472730
 C          3.9550914428        3.7899266085       -0.2649897236
 C          2.6932331296        3.5852146361       -0.8150725694
 C          2.0853973843        2.3438667204       -0.7794480672
 C          2.7658730816        1.3061593632       -0.1638123817
 C         -0.0026109682       -0.0203564999       -0.0753617918
 C         -1.2152435657       -0.5938997402       -0.4420172275
 N         -2.4108802688       -0.0241231512       -0.0282111492
 C         -3.4575913026       -0.6898509697        0.5971091455
 C         -3.5416467337       -2.0080160960        1.0156531480
 C         -4.6994330310       -2.4070996426        1.6572607533
 C         -5.7422954838       -1.5169274255        1.8955942037
 C         -5.6450503067       -0.1924096437        1.5176418134
 C         -4.4924754105        0.2297080539        0.8699453689
 C         -4.0496681232        1.5085032648        0.3836158363
 C         -4.6312800609        2.7682117607        0.3508346034
 C         -3.9261112564        3.8084027670       -0.2225890931
 C         -2.6672456038        3.5988735089       -0.7776345508
 C         -2.0708809066        2.3516200035       -0.7584749341
 C         -2.7595754127        1.3126684245       -0.1541247817
 H         -0.0002855938       -3.2366360224       -2.2086303388
 H          2.7063898098       -2.7023631294        0.8926440921
 H          4.7552593771       -3.4306228288        2.0300919867
 H          6.6080409035       -1.8785620434        2.4267013348
 H          6.4403337350        0.4885773118        1.7269463308
 H          5.6383455600        2.9038899481        0.7294495575
 H          4.3970073610        4.7738170072       -0.3101920850
 H          2.1793281761        4.4101174192       -1.2853570287
 H          1.1188116757        2.1926179449       -1.2346435332
 H         -0.0029621427        0.8602596027        0.5492399048
 H         -2.7357170669       -2.7089000311        0.8584346703
 H         -4.7929423260       -3.4321304626        1.9822264325
 H         -6.6326733065       -1.8684735150        2.3944889231
 H         -6.4421423985        0.5053790420        1.7236724738
 H         -5.6169148868        2.9250458964        0.7612420412
 H         -4.3587069119        4.7969120457       -0.2542516043
 H         -2.1459866478        4.4248942084       -1.2377819928
 H         -1.1064967924        2.1974329104       -1.2172187789
  54
  -89.3858151700000       0.269704649506443      !
 N         -3.3773156967       -1.0603218672       -3.3508110327
 C         -2.4183561272       -0.8205202183       -2.7705180445
 C         -1.2119192671       -0.5767240468       -2.0757759290
 C         -0.0045481331       -0.7599456093       -2.7400166843
 C          1.2039305010       -0.6021403995       -2.0712594078
 C          2.4045462242       -0.8869169203       -2.7607715050
 N          3.3570370379       -1.1660009852       -3.3340707907
 C          1.2109888701       -0.2419432060       -0.7062696289
 N          2.4073267526       -0.0306307163       -0.0364418245
 C          2.7575001750       -0.5652107489        1.1950674691
 C          2.0684523959       -1.4587739355        1.9986911627
 C          2.6665955218       -1.8628206292        3.1780733281
 C          3.9272876076       -1.4025258554        3.5459342311
 C          4.6323114914       -0.5372401254        2.7321091285
 C          4.0488708105       -0.1160698022        1.5454117719
 C          4.4901249619        0.7438278778        0.4805954051
 C          5.6420562378        1.4913121327        0.2794836223
 C          5.7360256401        2.2654180391       -0.8600661611
 C          4.6903601966        2.3183715654       -1.7768370208
 C          3.5335136361        1.5833382201       -1.5959057346
 C          3.4530693928        0.7719220936       -0.4756320847
 C         -0.0015603020       -0.0781587095       -0.0455618241
 C         -1.2141506778       -0.2285841983       -0.7083737579
 N         -2.4085087748       -0.0175286763       -0.0329021829
 C         -2.7700321755       -0.5973255569        1.1737728204
 C         -2.0995363769       -1.5412187851        1.9341065984
 C         -2.7072024208       -1.9880772197        3.0929075219
 C         -3.9584616793       -1.5189795013        3.4817012399
 C         -4.6446988459       -0.6014818755        2.7099529657
 C         -4.0521602236       -0.1376044029        1.5438204929
 C         -4.4751601283        0.7754066448        0.5163378483
 C         -5.6101032888        1.5560765947        0.3471709221
 C         -5.6880031126        2.3760538951       -0.7611365504
 C         -4.6445327585        2.4386058608       -1.6799900351
 C         -3.5041906286        1.6714363888       -1.5307859330
 C         -3.4385187060        0.8196659391       -0.4400185993
 H         -0.0053900115       -1.0493313933       -3.7809820168
 H          1.1017796058       -1.8445166894        1.7143110636
 H          2.1447579071       -2.5534886721        3.8233494852
 H          4.3611719980       -1.7384295744        4.4755571740
 H          5.6189354243       -0.1966406686        3.0061231516
 H          6.4410255589        1.4688343686        1.0046371278
 H          6.6256213070        2.8498253578       -1.0398325282
 H          4.7805569600        2.9493938327       -2.6478726358
 H          2.7251896060        1.6547418316       -2.3079318835
 H         -0.0022257328        0.2255796440        0.9904734534
 H         -1.1415762640       -1.9334471607        1.6286832213
 H         -2.2018293813       -2.7207906506        3.7040421058
 H         -4.4009767466       -1.8903961303        4.3936314200
 H         -5.6246769502       -0.2546183056        2.9996257545
 H         -6.4082725442        1.5234750361        1.0728413549
 H         -6.5636773806        2.9882978380       -0.9148172956
 H         -4.7233699544        3.1031592620       -2.5268896495
 H         -2.6969165180        1.7473162048       -2.2436774004
  54
  -89.3856545100000       0.227538143098172      !
 N         -3.2856154208       -2.1549602535       -2.8584279791
 C         -2.3441033674       -1.7141550189       -2.3750865604
 C         -1.1564712893       -1.2376196060       -1.7747213982
 C          0.0654060500       -1.6928553772       -2.2569591421
 C          1.2541782872       -1.3242507055       -1.6377452471
 C          2.4780386661       -1.7300417830       -2.2168007163
 N          3.4518415271       -2.0407453483       -2.7357403267
 C          1.2232387051       -0.4974140087       -0.4944190116
 N          2.3967561780       -0.1351969573        0.1508272365
 C          3.4114292682       -0.9990569050        0.5407257626
 C          3.4555738066       -2.3833144920        0.4978861934
 C          4.5839057712       -3.0063539949        0.9977430403
 C          5.6352430127       -2.2761557960        1.5441048591
 C          5.5765463589       -0.8989691810        1.6260422336
 C          4.4541073976       -0.2520678505        1.1281449247
 C          4.0504621082        1.1275972003        1.0838016418
 C          4.6593311633        2.3097823863        1.4809866099
 C          3.9918670616        3.5006941305        1.2711086741
 C          2.7425470769        3.5222532272        0.6584517082
 C          2.1178479601        2.3572726777        0.2518026422
 C          2.7725455180        1.1583001640        0.4850037664
 C         -0.0013112191       -0.0284883926       -0.0327833588
 C         -1.1934592233       -0.3739198705       -0.6592361212
 N         -2.4003461636        0.1094172003       -0.1753594263
 C         -2.8205904023        0.0639812747        1.1465671275
 C         -2.1916249505       -0.4783031830        2.2560651668
 C         -2.8589740700       -0.4230945006        3.4662491904
 C         -4.1247901100        0.1454937410        3.5724837100
 C         -4.7665833384        0.6616389537        2.4636374139
 C         -4.1151307287        0.6191973138        1.2389295388
 C         -4.4835828722        1.0338952130       -0.0879474132
 C         -5.6041560831        1.6648820407       -0.6098326742
 C         -5.6242701578        1.9662406934       -1.9572932681
 C         -4.5370886825        1.6686048487       -2.7736377126
 C         -3.4100631593        1.0421632022       -2.2749721018
 C         -3.4034694282        0.7004781771       -0.9321689307
 H          0.0912542384       -2.3396293624       -3.1220321781
 H          2.6411094187       -2.9672892899        0.0960841612
 H          4.6466650502       -4.0834594020        0.9661758978
 H          6.5016264956       -2.7992814558        1.9196118559
 H          6.3809095698       -0.3329652513        2.0706899840
 H          5.6365711184        2.2933407302        1.9382028186
 H          4.4463723565        4.4313969285        1.5751000216
 H          2.2503615219        4.4686354764        0.4915084563
 H          1.1583632322        2.3930967671       -0.2423335139
 H         -0.0270616936        0.6181604917        0.8308894814
 H         -1.2196249593       -0.9434619819        2.1865720995
 H         -2.3872559077       -0.8347064214        4.3459170336
 H         -4.6123934172        0.1715558699        4.5351942181
 H         -5.7563852202        1.0845649565        2.5408404682
 H         -6.4361667703        1.9171753960        0.0295790841
 H         -6.4883744278        2.4511708986       -2.3855809634
 H         -4.5706914756        1.9347501795       -3.8191291363
 H         -2.5682252782        0.8377738818       -2.9194365000
  54
  -89.3856528100000       0.227129185580279      !
 N         -3.4476915349       -2.0445492097       -2.7649219744
 C         -2.4764330843       -1.7334966976       -2.2416134762
 C         -1.2556614875       -1.3287425722       -1.6552941319
 C         -0.0638907249       -1.7030379149       -2.2657317108
 C          1.1563652149       -1.2496112773       -1.7778815621
 C          2.3470574251       -1.7286000666       -2.3704142031
 N          3.2930162224       -2.1668214928       -2.8469717951
 C          1.1888480258       -0.3830031706       -0.6645029517
 N          2.3940891580        0.0994074209       -0.1752504678
 C          2.8091984578        0.0553830392        1.1481532814
 C          2.1757390931       -0.4857080627        2.2558544968
 C          2.8381402189       -0.4288094570        3.4687375340
 C          4.1035520457        0.1400364937        3.5791560776
 C          4.7496853228        0.6551898757        2.4722006854
 C          4.1029672858        0.6118093609        1.2448758913
 C          4.4755092302        1.0270820587       -0.0807557343
 C          5.5963679797        1.6604140071       -0.5994243148
 C          5.6197576730        1.9622607698       -1.9468232241
 C          4.5356019844        1.6629447133       -2.7666007164
 C          3.4084033836        1.0340988343       -2.2713538376
 C          3.3986295157        0.6922712049       -0.9285947823
 C         -0.0058404211       -0.0326950356       -0.0464353617
 C         -1.2293598111       -0.4985343830       -0.5144846936
 N         -2.4040205622       -0.1291505261        0.1242915287
 C         -3.4180645495       -0.9879224933        0.5275214244
 C         -3.4752796722       -2.3713465971        0.4760646387
 C         -4.5998823181       -2.9882230097        0.9919885642
 C         -5.6346333977       -2.2530990062        1.5627267921
 C         -5.5623958972       -0.8769924664        1.6529521807
 C         -4.4438201161       -0.2362450294        1.1387749869
 C         -4.0297476474        1.1403862254        1.0966562717
 C         -4.6201987805        2.3246514933        1.5151770464
 C         -3.9472126802        3.5115671063        1.2999463484
 C         -2.7113552272        3.5275454882        0.6601046823
 C         -2.1045607617        2.3602940018        0.2332302343
 C         -2.7633201578        1.1648406878        0.4738306751
 H         -0.0864076447       -2.3528121079       -3.1286504691
 H          1.2036833635       -0.9504357062        2.1829019879
 H          2.3626115418       -0.8385886519        4.3476145310
 H          4.5873220917        0.1670175756        4.5439344730
 H          5.7389303503        1.0786954507        2.5530397959
 H          6.4263303960        1.9142069539        0.0421044055
 H          6.4850274948        2.4482202853       -2.3727849958
 H          4.5722126567        1.9289476832       -3.8124155868
 H          2.5687260569        0.8279884081       -2.9181364709
 H          0.0166938611        0.6158203167        0.8159648149
 H         -2.6736712919       -2.9600622089        0.0559042152
 H         -4.6725597529       -4.0644283089        0.9534381707
 H         -6.4985458227       -2.7713320594        1.9505345370
 H         -6.3527564845       -0.3075004146        2.1173490994
 H         -5.5877421817        2.3131444757        1.9931456382
 H         -4.3870701274        4.4437745031        1.6213251548
 H         -2.2155964802        4.4712648077        0.4884628542
 H         -1.1559765975        2.3916834065       -0.2817350240
