  40
  -69.9078845522000       0.773104572056729      !
 C          5.6455250672       -1.4339554440        1.6938349526
 C          4.5614207374       -0.7449356047        0.9301761190
 C          3.2453716451       -0.9674891993        1.1212271376
 C          2.2828705226       -0.2497813167        0.3366336028
 N          1.0010905551       -0.4367636235        0.5446041502
 C          0.0974211743        0.2673412586       -0.1731032085
 N         -1.2676484899        0.0272375683        0.0459517619
 C         -2.1187850163        1.0844109863        0.2837438317
 C         -1.6525461485        2.3632247956        0.6313049264
 C         -2.5320760049        3.4026058198        0.8117262374
 C         -3.9079500076        3.2112879539        0.6485162126
 C         -4.3959213983        1.9538345088        0.3434886149
 C         -3.5224519818        0.8914381782        0.1773135976
 O         -4.0493412156       -0.3332222825       -0.0804342982
 C         -3.2060875133       -1.3904212098       -0.1755822635
 C         -3.7739573294       -2.6469219388       -0.3653323606
 C         -2.9653243749       -3.7595410659       -0.4751089836
 C         -1.5812057774       -3.6239147971       -0.4099544878
 C         -1.0044541431       -2.3807032422       -0.2423998281
 C         -1.8016075570       -1.2430983733       -0.1095905518
 C          0.4905242593        1.2022051205       -1.1506105897
 C          1.8212148021        1.4124316486       -1.3798723889
 C          2.7857309151        0.6827679322       -0.6188749227
 C          4.1826338537        0.8845927846       -0.7857587060
 O          4.7223729298        1.6421354682       -1.5839156450
 O          5.0371273075        0.1265575126        0.0270266223
 H          6.3143039354       -1.9438858188        1.0026963924
 H          6.2360949670       -0.6974809595        2.2365067626
 H          5.2264914188       -2.1501276213        2.3929036064
 H          2.8957503645       -1.6648070805        1.8624206657
 H         -0.5931107276        2.5106972507        0.7684122991
 H         -2.1558429117        4.3761066050        1.0839044309
 H         -4.5886038458        4.0366713782        0.7777172186
 H         -5.4529652888        1.7683648092        0.2396793926
 H         -4.8481565591       -2.7168804220       -0.4242470998
 H         -3.4085142007       -4.7321509348       -0.6192049653
 H         -0.9493864626       -4.4931091238       -0.5005211713
 H          0.0664695723       -2.2761509094       -0.1930630828
 H         -0.2699088406        1.7004568773       -1.7336190483
 H          2.1714719913        2.1119434777       -2.1200777291
  40
  -69.9062930303000       0.143491249687157      !
 C          5.4210511270        2.1529977615       -1.6325080829
 C          4.4360866199        1.3120485836       -0.8816181807
 C          3.1037919798        1.3577989172       -1.0897889983
 C          2.2353054881        0.5235140531       -0.3122230473
 N          0.9423502681        0.5416563446       -0.5329673256
 C          0.1292626607       -0.2714938133        0.1797947981
 N         -1.2533525527       -0.1981162321       -0.0475881270
 C         -1.9345744920        1.0005928189        0.0989133614
 C         -1.2772835079        2.2214106671        0.2592520548
 C         -1.9969189199        3.3903860471        0.4065330268
 C         -3.3884112566        3.3677444346        0.4219521512
 C         -4.0608706179        2.1694115411        0.2892175065
 C         -3.3480120446        0.9864252973        0.1234095470
 O         -4.0611442633       -0.1612426804        0.0082665674
 C         -3.3892694043       -1.3176960620       -0.2262810050
 C         -4.1299923119       -2.4742667430       -0.4079137655
 C         -3.4928472953       -3.6678486389       -0.6952864623
 C         -2.1013783826       -3.6994255544       -0.8259011377
 C         -1.3522858713       -2.5642499748       -0.6300479248
 C         -1.9711422672       -1.3480234852       -0.2984921856
 C          0.6306282423       -1.1457421037        1.1624770682
 C          1.9756764216       -1.1818715533        1.4048993486
 C          2.8450753532       -0.3327111145        0.6525111503
 C          4.2538305015       -0.3479523425        0.8368657679
 O          4.8807002810       -1.0246863255        1.6442267591
 O          5.0107466285        0.5152176814        0.0296777357
 H          6.4243118421        1.7679492558       -1.4677453705
 H          5.1940964292        2.1489547483       -2.6964770782
 H          5.3803682201        3.1828402522       -1.2772651381
 H          2.6771548068        2.0023302898       -1.8388795023
 H         -0.2007582019        2.2405220300        0.2457492063
 H         -1.4713586182        4.3253736332        0.5176586987
 H         -3.9449807860        4.2828946913        0.5471293511
 H         -5.1375703107        2.1179860339        0.3127167669
 H         -5.2037622541       -2.4128728685       -0.3301847255
 H         -4.0712043688       -4.5662963098       -0.8355399962
 H         -1.6083583379       -4.6229286212       -1.0855673496
 H         -0.2799174007       -2.5888217587       -0.7422670813
 H         -0.0640946919       -1.7373501943        1.7402819135
 H          2.4069298588       -1.8296870022        2.1494469415
  40
  -69.9057802933000       8.340417825611399E-002 !
 C          5.6371586882       -0.4350453717        2.2531935527
 C          4.5525864652       -0.1678448948        1.2600845027
 C          3.2383398776       -0.3284944957        1.5120267706
 C          2.2810300747       -0.0300825582        0.4859753842
 N          0.9954801683       -0.1835346201        0.7312615280
 C          0.1039849475        0.1104530952       -0.2351653697
 N         -1.2714034620       -0.0730950422        0.0439919534
 C         -2.0403314061        1.0012090858        0.4215633196
 C         -1.4774628136        2.2232609696        0.8027192369
 C         -2.2824475665        3.2860844804        1.1373635442
 C         -3.6790985954        3.1665750296        1.0814558075
 C         -4.2587621555        1.9726475651        0.7113851587
 C         -3.4595752388        0.8804279746        0.3912014735
 O         -4.0645717866       -0.2792103849        0.0397352749
 C         -3.2937932614       -1.3470964046       -0.2755109065
 C         -3.9246857579       -2.5317833380       -0.6427891480
 C         -3.1742471139       -3.6413483779       -0.9639771394
 C         -1.7739710273       -3.5828896551       -0.9236344019
 C         -1.1340799017       -2.4132373158       -0.5851946550
 C         -1.8720775810       -1.2733676375       -0.2559791812
 C          0.4848714440        0.5751251938       -1.4981207686
 C          1.8193591852        0.7355028579       -1.7713495477
 C          2.7761795018        0.4290553017       -0.7615286905
 C          4.1781336578        0.5773955220       -0.9857367635
 O          4.7143391395        0.9547438422       -2.0185943980
 O          5.0245712174        0.2586632909        0.0774715339
 H          6.1573310151        0.4932515255        2.4865041259
 H          5.2257474905       -0.8580203589        3.1640344257
 H          6.3667098174       -1.1205774084        1.8253781066
 H          2.8842307698       -0.6720376667        2.4678888679
 H         -0.4024737614        2.3090096615        0.8349078193
 H         -1.8373716355        4.2200813507        1.4408640545
 H         -4.3000956194        4.0117731461        1.3304436462
 H         -5.3296165657        1.8542557702        0.6632233788
 H         -5.0026845473       -2.5508177301       -0.6658689663
 H         -3.6650072320       -4.5582249898       -1.2481344087
 H         -1.1945585310       -4.4590110848       -1.1665932275
 H         -0.0572396016       -2.3577245770       -0.5629578330
 H         -0.2755159689        0.7927184272       -2.2329259118
 H          2.1684432080        1.0875763886       -2.7272018110
