68
 energy: -116.831823865095 gnorm: 0.000028250568 xtb: 6.7.1 (edcfbbe)
C            3.94088172319980       -3.93582783332214        3.21718067363155
C            5.29242956103288       -3.60748728658374        3.29235488660465
C            5.80849639418326       -2.53118624351196        2.59821782047634
C            4.94378185009122       -1.77631880042382        1.81577698134993
C            3.57996961177248       -2.12114756163980        1.75191947383745
C            3.06040865141688       -3.19837210957157        2.44599559848925
O            2.88871290252890       -1.27564355857958        0.93862746127890
C            3.79824465398191       -0.37619513207765        0.46305262059247
C            5.08851498288399       -0.62080359799541        0.97170500076416
C            6.17077008388669        0.19940859802180        0.64766795664309
C            5.96439574778776        1.28481987973614       -0.17180160610719
C            4.68908526858217        1.53577948409509       -0.68021703768005
C            4.17524823334280        2.60145550712944       -1.49486374262961
C            4.76598614154547        3.71408650376469       -2.08084333817242
C            3.97361272315486        4.57033826095544       -2.81818023592000
C            2.61138954617606        4.32635899133121       -2.97686564668272
C            2.00202359122150        3.22630528734337       -2.40325181196005
C            2.79301838856751        2.36688084355927       -1.65745042922175
N            2.45074217719373        1.18671979023648       -1.00964904960189
C            1.20832631359554        0.57763861672653       -1.05046110795906
C            1.05403441108378       -0.81208265259157       -1.11690622557086
N           -0.13677011233784       -1.37042374872538       -1.10445555857113
C           -1.20834008475760       -0.57762507886796       -1.05045726381333
N           -2.45075556468241       -1.18670628952459       -1.00963836236976
C           -2.79303499157806       -2.36687013894241       -1.65743283783840
C           -2.00204466807518       -3.22629592093455       -2.40323732118114
C           -2.61141289004906       -4.32635379825722       -2.97684068027575
C           -3.97363447066652       -4.57033459593124       -2.81814386616843
C           -4.76600383105924       -3.71408059359741       -2.08080518052091
C           -4.17526324821629       -2.60144629012892       -1.49483454955877
C           -4.68909420708172       -1.53577157630335       -0.68018222767459
C           -5.96439925535533       -1.28481604233476       -0.17175111255978
C           -6.17076616782520       -0.19940775970472        0.64772430087623
C           -5.08850883841497        0.62080523618133        0.97175192598508
C           -4.94376636346023        1.77631332706197        1.81583205525300
C           -5.80847073318431        2.53116990215622        2.59829463167667
C           -5.29239550695322        3.60746337826746        3.29243722176472
C           -3.94084949040035        3.93580767181576        3.21724644351510
C           -3.06038629611872        3.19836212819039        2.44604035310120
C           -3.57995549648455        2.12114467596055        1.75195944960795
O           -2.88870824804933        1.27564914248287        0.93865059097783
C           -3.79824484264463        0.37620306503078        0.46308058638047
C           -3.59081033940613       -0.69099092356513       -0.39831491836223
C           -1.05404856805639        0.81209621153795       -1.11690158684841
N            0.13675625039181        1.37043733891798       -1.10445459471942
C            3.59080212511400        0.69100199694575       -0.39833716130427
H            3.57186577266725       -4.78497031617974        3.77229902266765
H            5.94620242298760       -4.20907163050387        3.90600307923659
H            6.85599245831404       -2.27871482870703        2.65731079416941
H            2.01297706974802       -3.44524541003363        2.38045568642512
H            7.14639587255682       -0.01521629615391        1.05411457628945
H            6.77595940381598        1.95121922923388       -0.41871803339811
H            5.82238208645669        3.89924741007964       -1.95956478481859
H            4.41189626779497        5.44257988209745       -3.27988105769432
H            2.01663920354854        5.01401645066861       -3.55954760439451
H            0.94635076069478        3.04420912340424       -2.51858390797857
H            1.89265444490921       -1.48440123957157       -1.21378712055239
H           -0.94637387231269       -3.04419594020750       -2.51858207469018
H           -2.01666610550312       -5.01401213490847       -3.55952524870017
H           -4.41191891064975       -5.44258223751397       -3.27983246791981
H           -5.82239718733140       -3.89924661870174       -1.95951190214189
H           -6.77596528338990       -1.95121419439923       -0.41866297494736
H           -7.14638795692685        0.01521466838512        1.05418178140500
H           -6.85596560209899        2.27869634047189        2.65739960757209
H           -5.94615954852699        4.20903661761912        3.90610569355823
H           -3.57182563681423        4.78494034227089        3.77237452279934
H           -2.01295561823629        3.44523638426014        2.38048994553652
H           -1.89266915959463        1.48441509403722       -1.21377511194465
