  68
       -116.83181984
 C          3.7951129407       -4.0273391787        3.3192715560
 C          5.1590114084       -3.7524411463        3.3853414135
 C          5.7161255680       -2.7116376571        2.6692114591
 C          4.8803500647       -1.9375899195        1.8741508186
 C          3.5034397434       -2.2278972261        1.8201308073
 C          2.9429249328       -3.2698810095        2.5358038748
 O          2.8441133056       -1.3696627648        0.9936276858
 C          3.7876636026       -0.5156877148        0.5007451177
 C          5.0689265283       -0.8040675673        1.0091895132
 C          6.1823035082       -0.0341898335        0.6673719138
 C          6.0167054865        1.0455839564       -0.1686634478
 C          4.7501678205        1.3413067505       -0.6749637849
 C          4.2756787686        2.4157736263       -1.5019281376
 C          4.9077594503        3.4948502444       -2.1072340976
 C          4.1463912485        4.3728375713       -2.8516555610
 C          2.7741852738        4.1833477227       -2.9984674213
 C          2.1239501197        3.1173050634       -2.4058548377
 C          2.8838974775        2.2364200704       -1.6529032386
 N          2.4973988834        1.0803398587       -0.9868871761
 C          1.2301777433        0.5236432758       -1.0138365182
 C          1.0172083587       -0.8587225229       -1.0708120151
 N         -0.1963630294       -1.3659189598       -1.0622515042
 C         -1.2331947047       -0.5277307906       -1.0149835376
 N         -2.5008570316       -1.0837864382       -0.9865902397
 C         -2.8901803839       -2.2377462442       -1.6541518131
 C         -2.1344038588       -3.1127376024       -2.4179625911
 C         -2.7874044893       -4.1761390325       -3.0122214308
 C         -4.1580514439       -4.3691830566       -2.8556621853
 C         -4.9152576214       -3.4970621195       -2.1002944755
 C         -4.2805638337       -2.4200472302       -1.4939805222
 C         -4.7511208933       -1.3486034169       -0.6608597642
 C         -6.0148913199       -1.0553304316       -0.1460611890
 C         -6.1773791940        0.0252572810        0.6895606322
 C         -5.0637192943        0.7988864055        1.0220224468
 C         -4.8731021726        1.9379649812        1.8792761406
 C         -5.7063442604        2.7153282703        2.6737455780
 C         -5.1482019430        3.7634816323        3.3782898289
 C         -3.7856924081        4.0423590368        3.3014733098
 C         -2.9359243107        3.2815274850        2.5186716319
 C         -3.4975102101        2.2321964534        1.8146656322
 O         -2.8407485323        1.3704840612        0.9898106075
 C         -3.7848758178        0.5114472092        0.5071884167
 C         -3.6201588425       -0.5522064028       -0.3676121085
 C         -1.0202511281        0.8543606869       -1.0741712301
 N          0.1932480565        1.3615707679       -1.0642397259
 C          3.6197741506        0.5464357736       -0.3752871968
 H          3.3937101940       -4.8498789424        3.8916489989
 H          5.7896375126       -4.3675371671        4.0097477961
 H          6.7730782070       -2.5004538319        2.7215846724
 H          1.8862347178       -3.4755101238        2.4770719849
 H          7.1502100400       -0.2816607303        1.0736316629
 H          6.8537848157        1.6740990667       -0.4293863967
 H          5.9716744325        3.6379710133       -1.9951406856
 H          4.6171382842        5.2198488089       -3.3281425048
 H          2.2042187767        4.8870737906       -3.5867428641
 H          1.0608082708        2.9775842613       -2.5119917252
 H          1.8271014220       -1.5668574560       -1.1568897984
 H         -1.0724357573       -2.9704151401       -2.5313019275
 H         -2.2211687530       -4.8747179863       -3.6100054306
 H         -4.6310793340       -5.2138469286       -3.3340938668
 H         -5.9780843836       -3.6424982323       -1.9814621159
 H         -6.8524772361       -1.6850242319       -0.4018085200
 H         -7.1432947489        0.2719075495        1.1009488221
 H         -6.7622884853        2.5019330603        2.7334430595
 H         -5.7770005831        4.3817807259        4.0013583941
 H         -3.3834521065        4.8707334672        3.8647823395
 H         -1.8802581303        3.4901399441        2.4517548227
 H         -1.8301419619        1.5620722485       -1.1634373892
