68
 energy: -116.752625880559 gnorm: 0.000084808808 xtb: 6.7.1 (edcfbbe)
C            3.76935552202358       -3.90541357196446        3.50178023015782
C            5.13407519471704       -3.63500533360190        3.56919177631704
C            5.70232217871310       -2.62211173734570        2.82237538231047
C            4.87697329657125       -1.87196648426735        1.99380276767515
C            3.49867573905500       -2.15781358808184        1.93837707820188
C            2.92726951319658       -3.17116427288854        2.68553860080028
O            2.85148992601983       -1.32802788259843        1.07409256751163
C            3.80206773310815       -0.49832910448762        0.55980964946924
C            5.07853292624176       -0.77400158210361        1.08779548331854
C            6.20102489234779       -0.03037085804990        0.71529938861573
C            6.05251435368396        1.00531778331676       -0.17908517408566
C            4.79297784723977        1.28854186959497       -0.70821736391500
C            4.33560638070340        2.30615695236146       -1.61140838222774
C            4.96903318642603        3.34977903833788       -2.27389199407570
C            4.21350881443789        4.17467793259288       -3.08400914759324
C            2.84273182533960        3.97428700977412       -3.23702963730214
C            2.19014491356096        2.94214678965711       -2.59028731018738
C            2.94438479358515        2.11406452643313       -1.77345703351279
N            2.54127850006022        1.02731304079443       -1.01776466698062
C            1.25990658418281        0.50237938306323       -1.01344610032307
C            1.02229296377326       -0.85269389148061       -1.07680115274815
N           -0.20836368193678       -1.36275087499647       -1.02178266955529
C           -1.26118984449914       -0.50219293732427       -1.01138159963838
N           -2.54254995237492       -1.02714730865813       -1.01367156174445
C           -2.94656570233067       -2.11452820399373       -1.76796588998959
C           -2.19330869133770       -2.94333129041517       -2.58497182692006
C           -2.84669967869086       -3.97597554382581       -3.23010199545624
C           -4.21731088046300       -4.17616569595684       -3.07533580193878
C           -4.97185066858474       -3.35056294811785       -2.26502282887079
C           -4.33760620529939       -2.30641954328342       -1.60414880425938
C           -4.79389209707817       -1.28800287558268       -0.70131725661671
C           -6.05282290764256       -1.00425202273451       -0.17102783053517
C           -6.20030367572622        0.03229306148201        0.72253002133108
C           -5.07736643866709        0.77623259415912        1.09306316770912
C           -4.87477941487496        1.87507569193198        1.99776870038459
C           -5.69921195516461        2.62610051039830        2.82645748083483
C           -5.13012682867303        3.63974668986778        3.57161221339130
C           -3.76547123991066        3.91003749352463        3.50244824840321
C           -2.92428779513318        3.17491167247130        2.68606482709566
C           -3.49653486118702        2.16081744305017        1.94055638140267
O           -2.85032079051928        1.33013817614738        1.07640387235284
C           -3.80149233318426        0.49999065944344        0.56394635294910
C           -3.64934134273832       -0.52606927491941       -0.35791769259531
C           -1.02364422192498        0.85282770361440       -1.07614748167408
N            0.20705769121081        1.36290348914231       -1.02316370142525
C            3.64884397847912        0.52687888998416       -0.36282823942187
H            3.35924746146576       -4.70582419480826        4.09886731963257
H            5.75666316246919       -4.23166440507879        4.21906256201234
H            6.75992963057703       -2.41449736211180        2.87600342595474
H            1.86991408056302       -3.37298518940463        2.62609187205847
H            7.16435596435789       -0.26677684913530        1.13862547703840
H            6.89973612320170        1.60614920077609       -0.47081143706778
H            6.02949123220953        3.51050781245888       -2.15304150047194
H            4.68870605010967        4.98993156968179       -3.60896235590895
H            2.28021483127956        4.63751338730293       -3.87696392812216
H            1.12902018560443        2.78616050316801       -2.70494475340564
H            1.83573537411445       -1.55381548277000       -1.15754422302846
H           -1.13232031451079       -2.78747393809398       -2.70102815850615
H           -2.28495528603811       -4.63977379640652       -3.87011778771169
H           -4.69314795475105       -4.99185055920233       -3.59903779745255
H           -6.03217060168880       -3.51115910055799       -2.14276948151223
H           -6.90038577632143       -1.60532903757717       -0.46125026220382
H           -7.16315021044051        0.26914926507147        1.14670146505149
H           -6.75677664834127        2.41861420460021        2.88139308937003
H           -5.75200306936077        4.23713224515526        4.22149710303392
H           -3.35469227079584        4.71104291635150        4.09827590667701
H           -1.86698473748484        3.37661526051528        2.62529641794851
H           -1.83720656434008        1.55386251863621       -1.15649216403111
