65
 energy: -105.527871943276 gnorm: 0.000155962067 xtb: 6.7.1 (edcfbbe)
C           -7.02315631100091       -1.94767552845465        0.16058668132455
C           -6.54890464214663       -0.48919096867022        0.01777136972247
C           -7.75977672210294        0.45547335730990       -0.09832848400573
C           -5.71875086438246       -0.37116905056532       -1.24424697548101
C           -6.28954593446169       -0.67147230740997       -2.47325223384801
C           -5.57690392740538       -0.57811393805246       -3.65451975938367
C           -4.25313368064514       -0.17181684573612       -3.62114416507802
C           -3.65980854113811        0.13194627649915       -2.41595225807786
C           -4.37769533465576        0.03487709180725       -1.21755652409244
N           -3.75475728204121        0.34410080966241       -0.02455321862243
C           -2.38822558503540        0.74757450822202       -0.04480518798155
C           -2.06792359509208        2.09904184886375       -0.12315465756540
C           -0.74475993406600        2.49741781601272       -0.14292565330561
C            0.28641364822849        1.56079394576211       -0.08659622006696
N            1.57226527543279        1.91121619781107       -0.10418482451275
C            2.54543755138327        1.01240428372219       -0.05121148312862
C            3.91650491219931        1.41138019988586       -0.07195437995344
C            4.22534188562466        2.78181369710053       -0.14855545092917
C            5.52212836932630        3.21318388230466       -0.17127701272360
C            6.56019998401746        2.26562678702523       -0.11668979826047
C            7.90457332373410        2.69739138094429       -0.13974546552777
N            8.99525794518499        3.05186143753031       -0.15918154998761
C            6.27454460156109        0.91185317257833       -0.04080705203241
C            4.95546628952001        0.44994770656936       -0.01666792021549
C            4.61985040425181       -0.95447357859886        0.06122369645514
C            5.58807643112302       -1.96116563147326        0.11695585249283
C            5.23088390991915       -3.29799451539707        0.19036332159994
C            6.23486098161254       -4.28958702427705        0.24438053366581
N            7.04703286942244       -5.09839066548525        0.28842875380638
C            3.87613755139514       -3.67570564109063        0.21113600745008
C            2.91402305267293       -2.70637819654200        0.15760615467804
C            3.25809692616343       -1.34424929341003        0.08225802754720
C            2.21466466236262       -0.37061957100301        0.02699285879910
N            0.94038124571059       -0.73597636732668        0.04608932257397
C           -0.04884790950517        0.15716132826043       -0.00640917860447
C           -1.38961489607514       -0.21494874813954        0.01353973496314
C           -4.41330276499786        0.27633795669637        1.18729669404190
C           -3.72716794359394        0.60064343816809        2.36414456269515
C           -4.35767715386746        0.54511879158966        3.58732008108656
C           -5.68701803521890        0.16294627545848        3.66062116657159
C           -6.36607545583938       -0.16209269247654        2.50079305815778
C           -5.75725097421800       -0.11520925640602        1.25437150850779
H           -7.63632069708354       -2.07012202835107        1.04881375034818
H           -7.60923798608889       -2.25042996063002       -0.70240050629169
H           -6.16381164709082       -2.61049353939569        0.24217598607533
H           -7.41920131440743        1.48432764981046       -0.19816392833088
H           -8.36239075582040        0.20778112595917       -0.96740198356254
H           -8.39052793131275        0.38686665128092        0.78328110761102
H           -7.32030035610759       -0.98828817184915       -2.51696856652736
H           -6.05169559640158       -0.81955145293417       -4.59289023670400
H           -3.68251216708507       -0.09125606829719       -4.53374996192059
H           -2.62916185357554        0.44955213023761       -2.39252910464596
H           -2.85955189265620        2.83106902800439       -0.16756528766497
H           -0.48301454317105        3.54166921045166       -0.20328260346646
H            3.40478064455906        3.48147491719342       -0.18879353329005
H            5.76190389696947        4.26407423774798       -0.23009777468382
H            7.10256499090030        0.22167221709252       -0.00068230204844
H            6.63900074158123       -1.71841998365018        0.10361686736163
H            3.61491907479521       -4.72157193880517        0.26859066187620
H            1.86547807653317       -2.96091503598618        0.17139405730024
H           -1.64109206440644       -1.26204426792502        0.07402691990783
H           -2.69127897389827        0.89671471137440        2.30955740253537
H           -3.81145627402368        0.79938390630470        4.48283208278625
H           -6.19123006726355        0.11635537811395        4.61343602995623
H           -7.40037131398443       -0.46099437905300        2.57580230764187
