  65
       -105.52194207
 C         -7.0058933453       -1.9581962216        0.1639077573
 C         -6.5446252930       -0.4956524487        0.0181094784
 C         -7.7641577712        0.4375915847       -0.1009182640
 C         -5.7152020067       -0.3725262091       -1.2433877430
 C         -6.2835337745       -0.6752867779       -2.4728934421
 C         -5.5704417931       -0.5767809881       -3.6534988430
 C         -4.2486640021       -0.1626887440       -3.6193808673
 C         -3.6575923081        0.1434121807       -2.4140643257
 C         -4.3758413305        0.0411016156       -1.2156710750
 N         -3.7555629147        0.3529073522       -0.0231445312
 C         -2.3880305416        0.7553812173       -0.0424181971
 C         -2.0666253369        2.1066062130       -0.1168620213
 C         -0.7426530651        2.5036046596       -0.1367630697
 C          0.2881145905        1.5649490719       -0.0842587117
 N          1.5728206393        1.9139196523       -0.1024815822
 C          2.5434137123        1.0150667908       -0.0521393026
 C          3.9153217346        1.4108687015       -0.0730231759
 C          4.2262319063        2.7809602180       -0.1491045419
 C          5.5233759508        3.2106449441       -0.1710080244
 C          6.5605614281        2.2612845640       -0.1159553457
 C          7.9052515948        2.6906679154       -0.1371681777
 N          8.9967957712        3.0432972246       -0.1540389272
 C          6.2727736844        0.9077484388       -0.0411343586
 C          4.9533658142        0.4473856042       -0.0180645910
 C          4.6158932202       -0.9562523192        0.0585357730
 C          5.5822218165       -1.9644672748        0.1145969669
 C          5.2231897219       -3.3010266829        0.1867474681
 C          6.2254902450       -4.2936273328        0.2416276055
 N          7.0363225780       -5.1038447874        0.2866613476
 C          3.8673133861       -3.6770019448        0.2054795490
 C          2.9069398167       -2.7062660913        0.1516953882
 C          3.2529876893       -1.3444634072        0.0781057457
 C          2.2100882820       -0.3702196403        0.0239779277
 N          0.9373880867       -0.7335355093        0.0424613947
 C         -0.0492766725        0.1608222476       -0.0073817945
 C         -1.3910771118       -0.2098498150        0.0124831598
 C         -4.4143023726        0.2845055079        1.1873609466
 C         -3.7300567303        0.6142160298        2.3644753001
 C         -4.3611142985        0.5578511579        3.5869444451
 C         -5.6889958239        0.1690724983        3.6599161599
 C         -6.3661475905       -0.1615318383        2.5005077135
 C         -5.7570618867       -0.1133547769        1.2543061892
 H         -7.6275053622       -2.0814776965        1.0460835123
 H         -7.5793645690       -2.2713501918       -0.7038101579
 H         -6.1410566217       -2.6120261511        0.2585647631
 H         -7.4330569474        1.4681576141       -0.2138305717
 H         -8.3696532866        0.1751739279       -0.9635900240
 H         -8.3891980397        0.3731183602        0.7849702567
 H         -7.3123493433       -0.9980338881       -2.5176064667
 H         -6.0432433413       -0.8201481289       -4.5923288830
 H         -3.6785237909       -0.0780636190       -4.5318052692
 H         -2.6289966229        0.4670556160       -2.3892878381
 H         -2.8574839336        2.8397256603       -0.1583742040
 H         -0.4793608832        3.5475573229       -0.1944222856
 H          3.4056826939        3.4806419973       -0.1895259374
 H          5.7648165721        4.2611831884       -0.2294596592
 H          7.0999367556        0.2164716487       -0.0009580607
 H          6.6335863254       -1.7233380866        0.1027120026
 H          3.6047222568       -4.7225951443        0.2617861548
 H          1.8576484110       -2.9578327701        0.1640549903
 H         -1.6437259633       -1.2567468855        0.0703586574
 H         -2.6955927327        0.9146943887        2.3093765293
 H         -3.8170570045        0.8161131416        4.4825293034
 H         -6.1932763360        0.1212966763        4.6125844358
 H         -7.3986117225       -0.4664426946        2.5757921423
