65
 energy: -105.565808136954 gnorm: 0.000054858611 xtb: 6.7.1 (edcfbbe)
C           -6.16661449933595       -1.76231629367085       -0.00020886867083
C           -5.64309107919081       -0.31458737085233        0.00000369865213
C           -6.81983567994148        0.67811329147936        0.00018163921463
C           -4.82301949549194       -0.09562948732976       -1.25753912154882
C           -5.42295504174658       -0.23995354782119       -2.50090178371832
C           -4.72489330369851       -0.05191484836680       -3.67957080678773
C           -3.38629837449651        0.29115837241898       -3.62654564263010
C           -2.76412301430097        0.43907647384300       -2.40467328061589
C           -3.46830058489224        0.24743700601896       -1.21303300108160
N           -2.81465561595374        0.39991855563542        0.00006168808408
C           -1.43793199286700        0.74701512951551        0.00007064975692
C           -1.07979708636444        2.11667823435787        0.00009932994616
C            0.22930171058411        2.49670805372553        0.00009503114624
C            1.24588553651978        1.51569523779101        0.00005473288412
N            2.53190248934250        1.88627076273169        0.00006425676305
C            3.45134869361936        0.93937754520380        0.00002157683844
C            4.84702497459903        1.31868756589611        0.00007260452112
C            5.18395487152478        2.67678600261369        0.00018813778873
C            6.49608069832955        3.07857010387063        0.00028447088312
C            7.50266471298385        2.10484677039253        0.00026063560262
C            8.86185061678036        2.49797308612185        0.00037814098396
N            9.96240946713363        2.81752930419445        0.00047648497744
C            7.18243778550270        0.75404212792833        0.00013172943674
C            5.85209905050103        0.32949438502394        0.00002862744869
C            5.48418553088214       -1.08131135793426       -0.00012181885782
C            6.43773523171209       -2.10154940372308       -0.00025441582721
C            6.05729032027146       -3.43667253186041       -0.00039054990520
C            7.05175426032209       -4.44318695549411       -0.00049613406948
N            7.85723567989694       -5.25837212734649       -0.00070848912632
C            4.70342904170881       -3.79478962338621       -0.00040116772619
C            3.75462097938854       -2.80332268846783       -0.00028118063712
C            4.12416159197780       -1.45377871112000       -0.00014775137690
C            3.09116902962088       -0.44118144696414       -0.00005475088942
N            1.82706882077795       -0.81905433246959       -0.00005200280553
C            0.88527181444512        0.13297409781938        0.00001277775013
C           -0.47760406384963       -0.22886365376100        0.00002701887297
C           -3.46825273366270        0.24705362724926        1.21313400565531
C           -2.76403883729836        0.43834880458822        2.40480774104995
C           -3.38617054540571        0.29004992235763        3.62665656285643
C           -4.72475906557103       -0.05305814298999        3.67962396620875
C           -5.42286107609525       -0.24073753191542        2.50092205491129
C           -4.82296987239085       -0.09602589901956        1.25758305294412
H           -6.77302891621111       -1.95546170706712        0.88036457534746
H           -6.77301235778526       -1.95521375666045       -0.88084814171576
H           -5.32984433607807       -2.45839693251166       -0.00029837686358
H           -7.44234090997443        0.54269097259100        0.88012440148711
H           -6.44284861459316        1.69923729223169        0.00030122519639
H           -7.44241174764087        0.54292129248423       -0.87974651275725
H           -6.46703036563769       -0.50802348181767       -2.55823474478186
H           -5.22306323593635       -0.17245595365073       -4.62929103625714
H           -2.82268276841958        0.44391711276081       -4.53478590033327
H           -1.71850898389958        0.70600123656707       -2.36987712150502
H           -1.87146678280436        2.85121219555143        0.00012693194062
H            0.52175170859306        3.53497126252944        0.00012496765178
H            4.37870431583600        3.39418334001519        0.00020767838439
H            6.76179203316600        4.12477245667819        0.00038342202187
H            7.99393015499833        0.04368891848016        0.00012430852844
H            7.49281525216588       -1.87813351660167       -0.00026103759078
H            4.42421837505743       -4.83746540224778       -0.00049842743848
H            2.70154548127012       -3.03587400162440       -0.00028695406396
H           -0.74044137745959       -1.27519496579532       -0.00000159733982
H           -1.71843320957237        0.70531277037829        2.37005268830929
H           -2.82252919834685        0.44254604465211        4.53492493955466
H           -5.22289516147494       -0.17389826671984        4.62932405875544
H           -6.46693130114090       -0.50883741650534        2.55820880457384
