65
 energy: -105.567109163368 gnorm: 0.000026871485 xtb: 6.7.1 (edcfbbe)
C           -6.97869763169077       -0.84488021636065       -2.04269688226409
C           -5.68566425596200       -0.42467379029086       -1.34476701638944
C           -4.63646998253208       -0.11215147045179       -2.43092289308865
C           -5.14203344024900       -1.50632860492184       -0.42701004378614
C           -5.57815552494511       -2.82207239331338       -0.42010800282916
C           -5.04064187133147       -3.74390234839317        0.46248089114615
C           -4.07823509555146       -3.35452671299697        1.37670282736375
C           -3.63636384162964       -2.04486772112376        1.39369805233838
C           -4.14180798158892       -1.13328739029981        0.47594548723160
N           -3.74415076915744        0.22176239673201        0.49729092077877
C           -2.43487254941887        0.62637797413452        0.38234818140437
C           -2.13200304242196        2.01096903233646        0.22236204411262
C           -0.85304611239848        2.45767328395615        0.11311507103358
C            0.22913512939690        1.54891485544576        0.13718685598398
N            1.48417356117788        1.98745955737350        0.05294135654304
C            2.45503800981185        1.08589912914853        0.04057138820533
C            3.82450444231692        1.53587359779042       -0.04180397577591
C            4.09052159158049        2.90944031273126       -0.09471459479219
C            5.37723039538164        3.37774000066054       -0.17171194708348
C            6.43396064433932        2.45792773219856       -0.19692695395516
C            7.76757195703927        2.92067500935701       -0.27505591618289
N            8.84858831728481        3.29733252687480       -0.33821505566648
C            6.18512445779277        1.09316607514325       -0.14577651135232
C            4.88085361311355        0.60100311843034       -0.06776282187466
C            4.58714705278793       -0.82519440199502       -0.01346977915966
C            5.59062181081326       -1.79632272464426       -0.04263649859115
C            5.28077569094854       -3.14822462101962        0.01138569280317
C            6.32289631523765       -4.10365437749248       -0.02088267359459
N            7.16629025939097       -4.87964564739406       -0.04694114354688
C            3.94876048425455       -3.57335149610483        0.09711802252533
C            2.95222088012892       -2.63093942484734        0.12609860989503
C            3.25001204301299       -1.26478872506071        0.07169241072735
C            2.16579595832725       -0.30694498026632        0.10348390325584
N            0.92628173774040       -0.75329501312565        0.19281102497877
C           -0.06612586320919        0.15142490530410        0.22088794971682
C           -1.39287694094366       -0.28279103136364        0.33131613547890
C           -4.84639284003678        1.09964428282506        0.43543376525574
C           -4.96312741038840        2.16768418404017        1.31651070981177
C           -6.07664951482085        2.98488371630705        1.26374445193834
C           -7.08177012205127        2.71846263113675        0.35126713633467
C           -6.98512348331746        1.62634655951890       -0.49496352153551
C           -5.87220618070433        0.80064908790186       -0.46681642582362
H           -7.32783952426946       -0.04863873927598       -2.69537043199267
H           -6.80126904099347       -1.71768785121209       -2.66594859741598
H           -7.75627922353658       -1.07759782404116       -1.31861473050618
H           -3.68395663890677        0.18591305618144       -2.00168101762668
H           -4.47090926025990       -0.99371370912261       -3.04659149707064
H           -4.99305927350067        0.69582341637198       -3.06647297513230
H           -6.34425154208800       -3.14566951533595       -1.10559316836183
H           -5.38820792137580       -4.76574053897452        0.44470636558550
H           -3.67992381161775       -4.06435014847345        2.08559580052427
H           -2.91557988425957       -1.72101812251670        2.12889199192778
H           -2.94344475251749        2.71851371699804        0.15677307902424
H           -0.63606051159312        3.50740581630700       -0.00917280853609
H            3.24919891141925        3.58390939808274       -0.07243024762553
H            5.58720710175754        4.43595435923187       -0.21243076502357
H            7.03198399526830        0.42545839662719       -0.16772150652563
H            6.63110271176440       -1.51982214914702       -0.10846923773633
H            3.72437872899997       -4.62855471317913        0.13848449077635
H            1.91355442894980       -2.91427509474674        0.19076060004688
H           -1.56224579704460       -1.34625397468791        0.35370605824811
H           -4.19014044019951        2.34221545460907        2.05024135434630
H           -6.16342721442309        3.81862169903538        1.94378007433610
H           -7.95367649362436        3.35323597831567        0.30647884491321
H           -7.79276934753232        1.42850392017308       -1.18055644807010
