66
 energy: -93.738609966843 gnorm: 0.000028600906 xtb: 6.7.1 (edcfbbe)
C            6.52954605174294       -1.88119784516008        0.94131153366828
C            6.16380713258471       -0.73479366787557       -0.01089368617184
C            7.13504181274650       -0.73702106228595       -1.19001476812512
O            4.83865751545727       -0.99723163455800       -0.48639869862948
B            3.96209007888626       -0.17693138060887        0.17085757431789
C            2.41271082396497       -0.28070291718247        0.03812777750370
C            1.55749007285884        0.57527931113791        0.74652219694301
C            0.19298145402816        0.48218560191241        0.63684428229559
C           -0.41147844774746       -0.49856370765155       -0.18301365341076
C           -1.82673010857479       -0.56838846933069       -0.30096629921919
C           -2.62229863990120        0.62920453324919        0.03367184513255
C           -2.41343887341444        1.81466028975559       -0.73307787565820
C           -1.85476681817724        1.73721350921119       -2.02685189284206
C           -1.61731584418614        2.87134857218372       -2.76848956331687
C           -1.90816789674629        4.12700925401631       -2.24917666047977
C           -2.42960730867057        4.22944278956869       -0.96597624570725
C           -2.68060755851396        3.10084138534703       -0.21816800497037
C           -3.56126259964490        0.52488475134680        1.10614945193127
C           -4.72796634752699        1.31452495597354        1.16531882998611
C           -5.63498083110845        1.16230935839290        2.19052988315937
C           -5.41842443222144        0.22703706189657        3.19385676696431
C           -4.28597197099656       -0.57646621003376        3.14386345033271
C           -3.37900714482334       -0.44092224927070        2.11801424171476
C           -2.53859806640704       -1.73962944195053       -0.71716763263929
C           -2.04200427207913       -3.03838527288031       -0.49008957554373
C           -2.77162227418136       -4.14861596520852       -0.85508487024954
C           -4.01399047935821       -4.01097129716500       -1.45929969186020
C           -4.52990519917793       -2.73961120854975       -1.67641596323882
C           -3.81427294099466       -1.62407508424483       -1.30486146867873
C            0.45310364562939       -1.34178291515678       -0.91777121912228
C            1.81690480498379       -1.22838628357532       -0.80511722218582
O            4.60284784379965        0.73931924599647        0.95983500221547
C            6.01247584523122        0.64939811136464        0.72239132742226
C            6.39148837144236        1.84233716803285       -0.16519888558574
C            6.75835067319545        0.76004428626110        2.05097437409859
H            6.45337761075924       -2.81986683024144        0.39653860704369
H            7.54224295218509       -1.76955470735037        1.31520553028527
H            5.83044894166345       -1.91927468675470        1.77346121153664
H            7.17440308029356       -1.73892161017789       -1.61095945199610
H            8.12933006484170       -0.45624806994201       -0.85527802219713
H            6.80802701365058       -0.05739803234314       -1.97061975750607
H            1.99819261334526        1.32011332190700        1.39353647598507
H           -0.44118631085664        1.14598877208073        1.20680022595861
H           -1.63587012509363        0.76456842297423       -2.44298413867850
H           -1.20167552709466        2.78397892242095       -3.76244025639912
H           -1.71809267241820        5.01562266475954       -2.83258921538050
H           -2.63220192263947        5.20441859098188       -0.54521428708879
H           -3.03716638823279        3.20007101932329        0.79622583754370
H           -4.93596746142690        2.01029157563593        0.36616511206569
H           -6.52767813356328        1.77177729053666        2.20810723720046
H           -6.13001559213268        0.11634301758425        3.99853287062594
H           -4.11522629485961       -1.31332067038248        3.91603268501206
H           -2.49452965810547       -1.06081381760262        2.09365186513220
H           -1.10037722753383       -3.16132982142786        0.02394710389241
H           -2.37535299960058       -5.13522649273303       -0.65988983507463
H           -4.57942518142428       -4.88478421579011       -1.74720529543289
H           -5.49980198682596       -2.62452827220565       -2.13924090258143
H           -4.21743898984382       -0.63848436680452       -1.48720297476894
H            0.03112292264546       -2.04945710807708       -1.61613053498410
H            2.46109347377680       -1.87588284714684       -1.38284508531078
H            7.45948956277193        1.86159648422143       -0.35729048986993
H            5.84754776516897        1.80191014427029       -1.10600972216450
H            6.10600382853868        2.75847949772242        0.34745622063362
H            6.59572559239965        1.75305140838957        2.46330493837077
H            6.39232481896754        0.03391103892568        2.76988186897222
H            7.82304286709927        0.61333671938361        1.89457558333808
