79
 energy: -132.900782067324 gnorm: 0.000141011463 xtb: 6.7.1 (edcfbbe)
N           10.62512340153143       -1.16130997926809       -0.62916597242252
C            9.59002236252766       -0.71684621206514       -0.38364924896092
C            8.33578328765337       -0.17087965259789       -0.08212855263343
C            8.25057237755130        1.04320111688875        0.60917260108006
C            7.02516668298109        1.59336072128637        0.90407356626316
C            5.83425659611432        0.95476342249793        0.51782091990148
N            4.64621717794457        1.50171867963091        0.75728871187983
C            3.53220758783502        0.86843604702686        0.38081427467214
C            2.20198387928426        1.47040683787365        0.53930280473647
C            1.44100583882091        1.70933212818871       -0.60652819254247
C            0.11848297822790        2.08212025714359       -0.50939641156852
C           -0.47897753649085        2.19427782909374        0.74246286466417
N           -1.87826123763054        2.40473024326603        0.82761138190361
C           -2.70765227524879        1.36315956896889        1.23589460026073
C           -2.20652523376818        0.15610211464773        1.71308237189426
C           -3.06093323237656       -0.85998168081172        2.10544468565092
C           -4.43188971807946       -0.69385372089206        2.02688463060198
C           -4.94895883799846        0.49505429045347        1.53977368094933
C           -4.10034133237341        1.51362591223804        1.14100336500921
O           -4.68078902507720        2.64861706826540        0.64460240017791
C           -3.85238993708942        3.65315962478566        0.21792425875379
C           -4.44938121152561        4.79023937863946       -0.29929158252252
C           -3.66914574314567        5.85225047941377       -0.72832763985838
C           -2.29090550887413        5.77639247314423       -0.62635208477019
C           -1.68710977696176        4.64118795868239       -0.11314039331742
C           -2.45434567316298        3.55592513646925        0.30095074849298
C            0.29525162470847        2.04840661778416        1.88975440914908
C            1.63027725389051        1.70358514795706        1.78739757628351
C            3.60970584147561       -0.40213773027920       -0.21814177005635
C            2.34022836281297       -1.11859075783817       -0.43798776117856
C            1.81858368683518       -1.35284483237234       -1.70561824767918
C            0.52696441593248       -1.82670956430185       -1.85086418583556
C           -0.25035151311337       -2.09329984348055       -0.72818777268341
N           -1.61627117060504       -2.44823910868432       -0.85292407036396
C           -2.54462046445103       -1.49666562361373       -1.27000316747384
C           -2.16654602540269       -0.24139085878181       -1.73519920772525
C           -3.11660279799392        0.68264371585978       -2.13535326165157
C           -4.46348465647438        0.37396998501717       -2.07667220525172
C           -4.85973626402679       -0.86529267932835       -1.60203367501155
C           -3.91500969662138       -1.79223530591958       -1.19570963774137
O           -4.38138619518114       -2.98424590774244       -0.71261808614648
C           -3.45829153454607       -3.90644603845702       -0.29434110405843
C           -3.94045729470168       -5.10957019932887        0.19239974757590
C           -3.05977985631621       -6.09453651863960        0.61039172693533
C           -1.69573883155141       -5.87603381935661        0.52593664868092
C           -1.20679145055681       -4.67403864499467        0.04327819014049
C           -2.07722057402790       -3.66405347538621       -0.35676245976632
C            0.30721321490578       -1.96538155219425        0.54035745755473
C            1.58538434471290       -1.46952717962484        0.68073237162482
N            4.77868945690590       -0.95651876509499       -0.49406060924779
C            5.91897683981856       -0.30903117238970       -0.17446386578661
C            7.16291458525027       -0.84388202647394       -0.46933422377787
H            9.15950395508549        1.54647565011806        0.90678765962164
H            6.94906970586552        2.53309057803775        1.42900657901282
H            1.89345495698101        1.58314022211375       -1.57874643369297
H           -0.46593426003014        2.26255091136376       -1.39842767806681
H           -1.13945087127850        0.01540294172953        1.76610706572620
H           -2.65007039773870       -1.78688623429667        2.47633001004292
H           -5.09844308334328       -1.48429120302366        2.33326340134260
H           -6.01186206470675        0.65346296540312        1.45303386068783
H           -5.52588696672377        4.82381398113667       -0.35290189520058
H           -4.14052953650289        6.73453940372775       -1.13121842423721
H           -1.67561223810450        6.60398447115339       -0.94322742123136
H           -0.61312124588403        4.59287076729794       -0.02678120900873
H           -0.15823535308595        2.18436713802872        2.86029702671011
H            2.22734762803273        1.57347904241505        2.67747129562134
H            2.41618511849915       -1.13079273888444       -2.57705550554120
H            0.11006989294024       -1.97385618824732       -2.83601989576511
H           -1.11953573417688        0.01001983338908       -1.77236191662931
H           -2.79932041381326        1.64947683593418       -2.49622581809241
H           -5.20515496832620        1.09173443133975       -2.38913118544332
H           -5.90139229179568       -1.13396532464243       -1.53080008027947
H           -5.00831650614665       -5.25462810277723        0.23160910909467
H           -3.44237282767831       -7.02848079393663        0.99010089339539
H           -1.00209372254893       -6.64342287422383        0.83254104801451
H           -0.14251975209751       -4.51495068189135       -0.03062786560003
H           -0.27530384639113       -2.22886965506787        1.40967088108191
H            2.00267067270517       -1.33061328160536        1.66698113287351
H            7.22157085101228       -1.78685536662691       -0.99150889042020
