  84
       -133.58077577
 O          6.9368878006        3.5596378650        0.7843452670
 C          6.6849766713        2.4563560770        0.2483123829
 C          7.7801184506        1.6775822393       -0.3616011811
 C          7.8287653865        0.2838095027       -0.2835568874
 C          8.8919200470       -0.4039543222       -0.8346993260
 C          9.9223173040        0.2798997423       -1.4622592303
 C          9.8953604795        1.6655023380       -1.5140175381
 C          8.8417958021        2.3622153300       -0.9591235460
 C          5.3399932018        1.9412713597        0.1935123219
 C          4.3624512796        2.5413041476        1.0257011422
 C          3.0646696509        2.1148044343        1.0137549628
 C          2.6636578834        1.0827106548        0.1482549763
 N          1.3379776611        0.6463601988        0.1289966910
 C          0.9175114656       -0.6644384511        0.1491376587
 C          1.6590982194       -1.8342024756        0.2300759671
 C          0.9837310424       -3.0387695833        0.2495221019
 C         -0.4186325694       -3.0875784091        0.1957430967
 N         -1.0666596401       -4.3268710643        0.1956544236
 C         -0.8209447165       -5.3751319826        1.0605597403
 C          0.0432493807       -5.4439591714        2.1445857890
 C          0.0732569676       -6.6190184671        2.8720208688
 C         -0.7407319294       -7.6996609984        2.5424410459
 C         -1.6246194230       -7.6265990302        1.4822910668
 C         -1.6721065506       -6.4574422821        0.7373978690
 C         -2.4652438224       -6.0323169881       -0.3841786352
 C         -3.4458898656       -6.6488692391       -1.1473184356
 C         -4.0045608515       -5.9468346874       -2.1988946220
 C         -3.5826557850       -4.6548944378       -2.5022153992
 C         -2.6058750444       -4.0210232121       -1.7572387835
 C         -2.0614327365       -4.7101921409       -0.6823242797
 C         -1.1703626965       -1.9191817861        0.1471275459
 C         -0.5051121828       -0.7024975294        0.1316901067
 C         -0.9459690476        0.6571439222        0.1040640506
 C         -2.1978857566        1.2533605525        0.0786090203
 C         -2.2719007916        2.6402745956        0.0124620625
 N         -3.5205709286        3.2678466523       -0.0117068304
 C         -4.5853767877        2.9171074590       -0.8185138652
 C         -4.6636332165        1.9470799078       -1.8084653259
 C         -5.8564097653        1.8209799291       -2.4957267505
 C         -6.9452560772        2.6436430654       -2.2192345537
 C         -6.8634871242        3.6318013160       -1.2559301594
 C         -5.6769783744        3.7760833534       -0.5524259752
 C         -5.2398592855        4.6859313810        0.4719434407
 C         -5.8579307318        5.7265928945        1.1492387065
 C         -5.1418716450        6.4008473274        2.1205851795
 C         -3.8343747533        6.0352823269        2.4299448138
 C         -3.1984795856        5.0008106114        1.7694025796
 C         -3.9024060761        4.3388281793        0.7729168682
 C         -1.1056343040        3.4216322207       -0.0435016585
 C          0.1467384210        2.8419725010       -0.0052707926
 C          0.2289236084        1.4599876071        0.0919798868
 C          3.6099602210        0.5166433576       -0.7208761207
 C          4.9111363405        0.9433684474       -0.7103747016
 H          7.0514260508       -0.2548289115        0.2386879524
 H          8.9228111669       -1.4822523486       -0.7659495311
 H         10.7487110861       -0.2646169869       -1.8949324496
 H         10.7032739066        2.2044264497       -1.9878605886
 H          8.8134436229        3.4409030462       -0.9874108236
 H          4.6864815182        3.3250569330        1.6930825152
 H          2.3434913841        2.5374878925        1.6982664287
 H          2.7363366133       -1.8105134428        0.2751943689
 H          1.5371470615       -3.9640586716        0.2799533547
 H          0.6628408657       -4.6050207815        2.4218201627
 H          0.7401240339       -6.6985719579        3.7175829649
 H         -0.6855162673       -8.6017573013        3.1330145944
 H         -2.2694700071       -8.4572096703        1.2390022086
 H         -3.7596216175       -7.6572557074       -0.9244845686
 H         -4.7715369579       -6.4073191374       -2.8033988299
 H         -4.0245538901       -4.1382002891       -3.3412492504
 H         -2.2696920490       -3.0282108336       -2.0147498517
 H         -2.2485055547       -1.9617894961        0.1545680195
 H         -3.0963208721        0.6587716204        0.1366087991
 H         -3.8180020756        1.3205318165       -2.0477091402
 H         -5.9433669359        1.0711733063       -3.2678945902
 H         -7.8608716713        2.5124714750       -2.7759056970
 H         -7.7009327834        4.2827117932       -1.0561822838
 H         -6.8779705395        5.9975608670        0.9232694867
 H         -5.6030108243        7.2164091984        2.6569105221
 H         -3.3060064022        6.5689069518        3.2056561606
 H         -2.1920992551        4.7124914148        2.0311529491
 H         -1.1998800373        4.4907089435       -0.1518178246
 H          1.0348789315        3.4496484930       -0.0789432797
 H          3.2870113089       -0.2250797937       -1.4374600822
 H          5.6062480695        0.5388125813       -1.4301365853
