  66
       -103.82831375
 O          6.0462897262        1.7193709209       -1.7188896672
 S          5.6569541939        1.3677311362       -0.3782714482
 O          5.7457488805        2.3733153988        0.6477951336
 C          6.6066008667       -0.0713624302        0.1322912429
 C          7.3078308025       -0.7971200873       -0.8098809556
 C          8.0021077267       -1.9281238202       -0.4124262676
 C          7.9816804227       -2.3176224136        0.9175383133
 C          7.2746633679       -1.5799875808        1.8550086102
 C          6.5791882935       -0.4493553357        1.4605906199
 C          3.9818810911        0.7238260655       -0.4080148892
 C          3.6157391148       -0.1341673368       -1.4275899996
 C          2.3397291184       -0.6640536699       -1.4421366035
 C          1.4250489313       -0.3363919292       -0.4401932691
 C          0.0644491352       -0.8912805632       -0.4606904898
 C         -0.1475461319       -2.2319230331       -0.7838130840
 C         -1.4197339056       -2.7742207409       -0.8016337098
 C         -2.4986684982       -1.9577552265       -0.5032158808
 C         -2.2945791645       -0.6062179259       -0.1885290598
 C         -1.0266126021       -0.0740695467       -0.1554268868
 C         -3.6129904792        0.0799155677        0.1112766498
 C         -3.5453302717        0.5955737199        1.5358052941
 C         -3.9682301205       -0.1883026018        2.6009002940
 C         -3.8465172641        0.2698041642        3.9012596932
 C         -3.2913501518        1.5116896290        4.1546094921
 C         -2.8551081735        2.2932648090        3.0982685457
 C         -2.9785497244        1.8378577311        1.7984088530
 C         -3.9724387342        1.1668139269       -0.8832743134
 C         -4.9397771952        2.1115192767       -0.5593705178
 C         -5.3202701280        3.0713855196       -1.4790651550
 C         -4.7435848107        3.0977025795       -2.7374517079
 C         -3.7873846671        2.1546357146       -3.0699632082
 C         -3.4071391749        1.1920029189       -2.1511145536
 C         -4.5934918802       -1.0616801696       -0.0781838294
 C         -5.9667504569       -1.0470488296        0.0413930305
 C         -6.6688509178       -2.2203513630       -0.1990778621
 C         -6.0069190091       -3.3851733863       -0.5572815831
 C         -4.6280028143       -3.4049967934       -0.6860291902
 C         -3.9225755553       -2.2368993352       -0.4464514483
 C          1.8172323248        0.5328546348        0.5780485820
 C          3.0959702219        1.0580809243        0.5973533466
 H          7.3119190639       -0.4540551008       -1.8327441208
 H          8.5595228910       -2.5023681456       -1.1370699523
 H          8.5245295340       -3.1983524833        1.2272831421
 H          7.2681965309       -1.8845325141        2.8906932145
 H          6.0307000003        0.1539519070        2.1668149107
 H          4.3278045740       -0.3593677160       -2.2060462529
 H          2.0369747286       -1.3182282057       -2.2460413178
 H          0.7035025742       -2.8617918255       -0.9979725476
 H         -1.5665567040       -3.8165345667       -1.0421858274
 H         -0.8708162718        0.9692533361        0.0737108989
 H         -4.3985605634       -1.1612760012        2.4138941718
 H         -4.1865605221       -0.3485412090        4.7191657060
 H         -3.1977791861        1.8687591241        5.1695231900
 H         -2.4165653102        3.2624131561        3.2865828889
 H         -2.6442767646        2.4587022370        0.9795253471
 H         -5.3887173695        2.1035343052        0.4234287130
 H         -6.0709191808        3.8009752768       -1.2119473737
 H         -5.0397516101        3.8484418466       -3.4550013545
 H         -3.3341627477        2.1652037140       -4.0503918958
 H         -2.6640291016        0.4567713214       -2.4232769613
 H         -6.4896365667       -0.1440609104        0.3186661694
 H         -7.7449168993       -2.2254593917       -0.1064843874
 H         -6.5746116351       -4.2859466631       -0.7394808822
 H         -4.1138268822       -4.3118182531       -0.9677819821
 H          1.1198741038        0.7804835181        1.3646418077
 H          3.4206491216        1.7362270875        1.3710677206
