  92
       -119.35496101
 C          0.2668946934        2.2537876259       -2.9112043649
 C          0.0235465627        2.6535937571       -1.4543378092
 C         -0.9561875574        3.8209342994       -1.3798924264
 C          1.3419097392        2.9287263258       -0.7847031669
 C          1.9270920077        4.1807831285       -0.8125648811
 C          3.1743880414        4.4101713909       -0.2460680595
 C          3.8590230372        3.3622229095        0.3539214919
 C          3.3022211323        2.1036041987        0.3872934814
 C          2.0367846173        1.8649140816       -0.1786794440
 P          1.2091099938        0.2789957523        0.1810138354
 C          2.6453999708       -0.8156933024        0.4958448318
 C          2.8417777202       -1.3317255112        1.7780634880
 C          3.9180998407       -2.1483885221        2.0548035223
 C          4.7921862714       -2.5013009256        1.0362006953
 C          4.5669379288       -2.0438667073       -0.2500932752
 C          3.4938380728       -1.2159902253       -0.5505179143
 C          3.2638093778       -0.7562375841       -1.9669952096
 C          4.2567364215        0.3363937279       -2.3686985601
 C          3.3574677942       -1.9165915733       -2.9605718780
 C          0.4131509603        0.4713058682        1.7738331117
 C          1.1071397013        1.2583695965        2.7309596413
 C          0.5456653324        1.6035058811        3.9266053847
 C         -0.7738236848        1.2254108809        4.2345020202
 C         -1.4884835058        0.5079881104        3.3019286441
 C         -0.9503872149        0.1765479487        2.0590032261
 P         -2.0857694183       -0.7707557799        1.0173955846
 C         -1.1358173139       -1.2928221681       -0.4388223717
 C         -1.3284858102       -0.6812524207       -1.6835096442
 C         -0.7435570303       -1.1932971415       -2.8202004661
 C          0.0288401875       -2.3448137870       -2.7358089241
 C          0.2143286244       -2.9677809682       -1.5137501711
 C         -0.3632178597       -2.4735232866       -0.3542110194
 C         -0.3008796494       -3.2335765745        0.9452230165
 C          0.9474743421       -4.1003613679        1.0964251955
 C         -1.5504286917       -4.1134491071        1.0696296715
 C         -3.2011182242        0.5200408155        0.3300860314
 C         -2.9978495283        1.8653913717        0.6269154100
 C         -3.9024466493        2.8234959180        0.2123703702
 C         -5.0317864813        2.4438655934       -0.4933582833
 C         -5.2511646921        1.1065517050       -0.7719312475
 C         -4.3555983387        0.1286632324       -0.3622641008
 C         -4.6394157145       -1.3266755004       -0.6396578881
 C         -4.7803233043       -1.6078585048       -2.1349305535
 C         -5.8863527564       -1.7757425665        0.1240831326
 H          0.7650112925        3.0622763391       -3.4430790565
 H         -0.6768427397        2.0404531937       -3.4084332754
 H          0.8964846401        1.3682060423       -2.9627729535
 H         -0.4206228313        1.7915865209       -0.9305744795
 H         -0.6495270186        4.6323732295       -2.0360531284
 H         -1.9458746217        3.4932136791       -1.6916682796
 H         -1.0232787821        4.2002096992       -0.3628925280
 H          1.4134032580        5.0007080724       -1.2908583863
 H          3.6105992743        5.3969553672       -0.2805977495
 H          4.8323349476        3.5286566524        0.7935177403
 H          3.8463481524        1.2876737873        0.8441377058
 H          2.1537886668       -1.0653429112        2.5674545283
 H          4.0754150174       -2.5114390940        3.0598027669
 H          5.6365302259       -3.1424629692        1.2416593693
 H          5.2439657463       -2.3407103047       -1.0370202261
 H          2.2436073508       -0.3444151863       -2.0100797203
 H          4.1491264379        1.2145291757       -1.7380398064
 H          4.0864899173        0.6314265344       -3.4021057999
 H          5.2772755285       -0.0301339476       -2.2776567236
 H          2.7979674988       -2.7757685326       -2.6020775889
 H          2.9530920375       -1.6123566207       -3.9234119268
 H          4.3920841220       -2.2151639202       -3.1120135494
 H          2.1241130040        1.5534699669        2.5098629444
 H          1.1262646352        2.1598040399        4.6485536178
 H         -1.2163283385        1.5027641023        5.1781518667
 H         -2.5114477750        0.2153858493        3.5088720055
 H         -1.9501266652        0.2004562927       -1.7481613966
 H         -0.9008925117       -0.7141211570       -3.7754455228
 H          0.4646870955       -2.7670891858       -3.6289376814
 H          0.7956452422       -3.8763597698       -1.4721204932
 H         -0.3172849632       -2.4988777512        1.7623728017
 H          1.8437876258       -3.5472807312        0.8304841302
 H          1.0420444168       -4.4287321829        2.1290221924
 H          0.8821364264       -4.9877450895        0.4703547837
 H         -1.6023623306       -4.8125268569        0.2370292146
 H         -1.5190478966       -4.6776916172        1.9987141923
 H         -2.4535236738       -3.5054901257        1.0673821465
 H         -2.1192419041        2.1617054726        1.1821918622
 H         -3.7285908947        3.8644776727        0.4428043605
 H         -5.7456871234        3.1870134165       -0.8177144700
 H         -6.1427439803        0.8205684326       -1.3108656314
 H         -3.7875869057       -1.9132134601       -0.2689561454
 H         -5.6227416688       -1.0650539221       -2.5567309676
 H         -3.8767544219       -1.3128604105       -2.6638611749
 H         -4.9418928030       -2.6710684579       -2.2997608336
 H         -6.0566914302       -2.8398010125       -0.0250199612
 H         -5.7610257316       -1.5904599356        1.1889494645
 H         -6.7657887346       -1.2349380386       -0.2172348913
