  92
  -118.668118014300       0.330048375402611      !
 C          1.4809681489        2.5192181771       -3.1917581115
 C          1.0258413652        2.6877268160       -1.7422826763
 C          0.1823659387        3.9504398955       -1.5720119823
 C          2.2062345112        2.6830225157       -0.8070396404
 C          3.1390384916        3.7101243124       -0.8421323615
 C          4.2311481891        3.7191053305        0.0107732026
 C          4.4079567572        2.6849218427        0.9152387002
 C          3.5007587822        1.6447477832        0.9556569998
 C          2.3937946595        1.6359597280        0.0995148097
 P          1.1593729330        0.2890067718        0.2301738923
 C          2.2586269299       -1.0916792750        0.7679700840
 C          2.1375674988       -1.5919982834        2.0615127849
 C          2.9790268991       -2.5914879634        2.5105918716
 C          3.9474345981       -3.1023712424        1.6632591430
 C          4.0543870791       -2.6237460611        0.3692770750
 C          3.2097286390       -1.6285978491       -0.1063933982
 C          3.3280068339       -1.1422275266       -1.5283350229
 C          4.5998838550       -0.3144828993       -1.7226790256
 C          3.3093892153       -2.3030671995       -2.5234879378
 C          0.2141571223        0.7090102937        1.6861870198
 C          0.6767008532        1.6954225879        2.5858861399
 C          0.0140374711        1.9793119432        3.7476033918
 C         -1.2005516486        1.3332005228        4.0596340653
 C         -1.7389702862        0.4630286768        3.1442476409
 C         -1.0757756887        0.1446283318        1.9572294858
 P         -2.1569689691       -0.6360373567        0.7331234919
 C         -1.1423531133       -1.0708343535       -0.7079695447
 C         -1.2002906202       -0.2912045844       -1.8829968158
 C         -0.6502830215       -0.7416259262       -3.0577384219
 C         -0.1058667496       -2.0203759011       -3.1231965075
 C         -0.1173350554       -2.8325726472       -1.9961640184
 C         -0.6233656400       -2.3883949011       -0.7905048320
 C         -0.7177973134       -3.2960301685        0.4091037196
 C          0.4380045499       -4.2880624720        0.5201615509
 C         -2.0510174452       -4.0491513401        0.3580888931
 C         -3.1728325158        0.7434326141        0.1239454400
 C         -2.6354904568        2.0361330092        0.0832764799
 C         -3.4143411796        3.1043442256       -0.3014295199
 C         -4.7453807448        2.9031570467       -0.6392670751
 C         -5.2881963732        1.6278246240       -0.5788831569
 C         -4.5282213742        0.5390511888       -0.1879615619
 C         -5.0897253010       -0.8593155061       -0.1550368218
 C         -4.8390666159       -1.5392540258       -1.5034777246
 C         -6.5699153067       -0.9215869841        0.2133104667
 H          2.1167997119        3.3474250131       -3.4966569690
 H          0.6183307127        2.4855078086       -3.8534597754
 H          2.0420799839        1.5941057690       -3.3060209440
 H          0.4004001109        1.8213927468       -1.4826082708
 H          0.7256097300        4.8312364286       -1.9063614839
 H         -0.7326171771        3.8704356095       -2.1552561596
 H         -0.0846681138        4.0891193327       -0.5263537248
 H          3.0145729258        4.5188431903       -1.5470156833
 H          4.9428491623        4.5301976998       -0.0325725510
 H          5.2555934585        2.6850251827        1.5853889195
 H          3.6469141118        0.8278539323        1.6490878571
 H          1.3880087925       -1.1788347416        2.7223175611
 H          2.8833263898       -2.9647164723        3.5196594364
 H          4.6160022996       -3.8782406084        2.0067621332
 H          4.8096195456       -3.0369732125       -0.2828411793
 H          2.4534190601       -0.5050855504       -1.7300480605
 H          4.6621146545        0.0387855845       -2.7498686169
 H          5.4800955331       -0.9185732190       -1.5128583134
 H          4.6100433069        0.5473791554       -1.0608389527
 H          2.4726321200       -2.9643405180       -2.3199231295
 H          3.2104999867       -1.9206373203       -3.5369211295
 H          4.2303788901       -2.8785017792       -2.4684024890
 H          1.6020963882        2.2085357723        2.3647768879
 H          0.4252926385        2.7045083681        4.4345160414
 H         -1.7081447149        1.5488344819        4.9867373453
 H         -2.7070996298        0.0099063622        3.3229774362
 H         -1.6724355112        0.6802879124       -1.8459609876
 H         -0.6672718761       -0.1154545919       -3.9379734433
 H          0.2946589931       -2.3931855613       -4.0538646132
 H          0.2576821089       -3.8421548644       -2.0765421406
 H         -0.7137596343       -2.6604297756        1.3052345132
 H          1.3935421655       -3.7890801975        0.3845171659
 H          0.4305421413       -4.7528690948        1.5035706797
 H          0.3465000026       -5.0781488093       -0.2218607889
 H         -2.1086528758       -4.6519031101       -0.5462041191
 H         -2.1497163086       -4.7031250618        1.2215279887
 H         -2.8831158191       -3.3467899276        0.3549932318
 H         -1.5999764861        2.1892586870        0.3564469857
 H         -2.9876775793        4.0966637963       -0.3373080038
 H         -5.3607076757        3.7365537515       -0.9443963725
 H         -6.3249338944        1.4895032840       -0.8459736587
 H         -4.5266609612       -1.4115610857        0.6137333946
 H         -3.7734473543       -1.5570926342       -1.7282986637
 H         -5.2082049943       -2.5627539691       -1.4880206550
 H         -5.3482671485       -0.9977703866       -2.2984271735
 H         -7.1918893401       -0.5418211146       -0.5936851680
 H         -6.8604418642       -1.9533773024        0.4004636084
 H         -6.7661716304       -0.3395537529        1.1110014834
  92
  -118.667668781600       0.205175048535687      !
 C          0.6974867406        2.3238405943       -2.7697994558
 C          0.4695754591        2.8104307224       -1.3369956082
 C         -0.2703199441        4.1441317575       -1.3458789491
 C          1.7782002498        2.8485423830       -0.5953433932
 C          2.5611431071        3.9858331599       -0.5412376771
 C          3.7898034296        3.9903958012        0.1081116123
 C          4.2525173981        2.8298159569        0.7135775465
 C          3.4985853818        1.6791202284        0.6650006221
 C          2.2527219171        1.6681644705        0.0104766499
 P          1.1643532388        0.2303658019        0.2603662714
 C          2.3734882761       -1.1187862785        0.5426032812
 C          2.3670156888       -1.7699225263        1.7766365690
 C          3.2572416918       -2.7888608057        2.0452063197
 C          4.1418226735       -3.2042575116        1.0601808363
 C          4.1147908254       -2.6008318703       -0.1841883485
 C          3.2320147099       -1.5694095652       -0.4743803490
 C          3.2144608567       -0.9576094973       -1.8511446814
 C          4.4245775658       -0.0501211722       -2.0813660139
 C          3.1714724847       -2.0304155510       -2.9417482655
 C          0.3280468520        0.4386503020        1.8289455250
 C          1.0650383501        1.1071025837        2.8435784408
 C          0.4968095571        1.4638933460        4.0326460045
 C         -0.8674776794        1.2267548182        4.2762274562
 C         -1.6198036361        0.6298043866        3.2881240565
 C         -1.0686495648        0.2693620957        2.0609003916
 P         -2.2504407698       -0.4860408351        0.9219830883
 C         -1.2256627116       -1.2774641706       -0.3644436906
 C         -1.0573618339       -0.6824401620       -1.6211803110
 C         -0.4963650732       -1.3882675666       -2.6665447060
 C         -0.1008357601       -2.7005480567       -2.4697272392
 C         -0.2309220982       -3.2875788717       -1.2207362195
 C         -0.7995194121       -2.6007667366       -0.1590327475
 C         -1.0725151690       -3.2763698366        1.1612336079
 C         -0.0414041571       -4.3400744468        1.5314674172
 C         -2.4729024008       -3.8971918344        1.1244221230
 C         -2.9896419766        0.9399997752        0.0328543170
 C         -2.6770463231        2.2435265130        0.4164058781
 C         -3.3559193154        3.3199805735       -0.1187359239
 C         -4.3685063691        3.1063556531       -1.0400200114
 C         -4.7046436578        1.8141642814       -1.4031720479
 C         -4.0435661826        0.7184379472       -0.8675226518
 C         -4.4809078290       -0.6807572760       -1.2242993050
 C         -4.4119466139       -0.9413864396       -2.7282892407
 C         -5.8895488006       -0.9411991357       -0.6870878670
 H          1.3550568539        3.0110034649       -3.2989666680
 H         -0.2486221658        2.2668412272       -3.3046587637
 H          1.1576572350        1.3383012609       -2.7699234261
 H         -0.1599270588        2.0672828759       -0.8189605175
 H          0.2324854481        4.8664962993       -1.9849024886
 H         -1.2786698997        4.0017305966       -1.7288449805
 H         -0.3371141098        4.5520709561       -0.3401103820
 H          2.2224206701        4.8931363429       -1.0172526401
 H          4.3826685119        4.8920266223        0.1353093217
 H          5.2077920644        2.8232030233        1.2193919765
 H          3.8684442598        0.7713305251        1.1235983983
 H          1.6708465342       -1.4487948203        2.5386893801
 H          3.2618962081       -3.2592185455        3.0177166175
 H          4.8399757056       -4.0040659747        1.2582788352
 H          4.7968431293       -2.9441297473       -0.9476139175
 H          2.2979445544       -0.3543331641       -1.9219603217
 H          4.4322915009        0.7788525602       -1.3794027235
 H          4.3971565772        0.3543498358       -3.0910446109
 H          5.3472395730       -0.6138653395       -1.9597663006
 H          2.4506641090       -2.8018979151       -2.6875902938
 H          2.8863448893       -1.5839795790       -3.8918221522
 H          4.1465444820       -2.4944554642       -3.0689267648
 H          2.1152861439        1.2996465347        2.6710640261
 H          1.1055136772        1.9246435928        4.7975622591
 H         -1.3138712515        1.5139539810        5.2150213884
 H         -2.6759736640        0.4463311448        3.4459222226
 H         -1.4049668934        0.3288946007       -1.7773118362
 H         -0.3909079177       -0.9266509014       -3.6377616596
 H          0.2862164742       -3.2776586804       -3.2969482584
 H          0.0884550139       -4.3097873277       -1.0874446557
 H         -1.0620182320       -2.5006818945        1.9392100399
 H          0.9693356253       -3.9645362363        1.3931978758
 H         -0.1654956157       -4.6221141202        2.5747331672
 H         -0.1695951237       -5.2358167721        0.9277578254
 H         -2.5416640875       -4.6258793940        0.3188813893
 H         -2.6866763679       -4.3963155733        2.0666084000
 H         -3.2285872643       -3.1302199874        0.9625068951
 H         -1.8917541493        2.4119156631        1.1402795789
 H         -3.1018961132        4.3240626301        0.1880116071
 H         -4.9048390199        3.9432947737       -1.4629976270
 H         -5.5099821745        1.6585824234       -2.1064398544
 H         -3.7992988791       -1.3867457486       -0.7318379307
 H         -5.0911775085       -0.2875533451       -3.2697911870
 H         -3.4022725062       -0.7756945267       -3.0970976658
 H         -4.6886216209       -1.9720930945       -2.9400441762
 H         -6.1857980142       -1.9683332541       -0.8889212744
 H         -5.9167576735       -0.7771046508        0.3881603629
 H         -6.6116530055       -0.2757971271       -1.1540464367
  92
  -118.667557503900       0.182383209816888      !
 C          0.8599365416        2.2317015870       -2.8671648915
 C          0.5597982590        2.6263038106       -1.4197473238
 C         -0.2543734420        3.9161098785       -1.3744209216
 C          1.8474177078        2.7013577238       -0.6463271999
 C          2.6193073782        3.8481759670       -0.6292065502
 C          3.8382016539        3.8906810956        0.0352104376
 C          4.3012576208        2.7591470056        0.6924400981
 C          3.5557151118        1.6016588158        0.6826174658
 C          2.3195541933        1.5517616462        0.0138028448
 P          1.2360802468        0.1095626290        0.2858122017
 C          2.4556777692       -1.1812878720        0.7377675412
 C          2.4443764317       -1.7055999766        2.0318789711
 C          3.3483355388       -2.6757755842        2.4098283400
 C          4.2519058095       -3.1717750810        1.4804117585
 C          4.2274180852       -2.6995750498        0.1797526158
 C          3.3297853790       -1.7199224538       -0.2222151218
 C          3.3136277569       -1.2450765409       -1.6524488025
 C          4.5029121830       -0.3293905966       -1.9496964215
 C          3.3174320858       -2.4156305914       -2.6379156978
 C          0.3313504252        0.4413197400        1.7967579782
 C          1.0368168779        1.1426534704        2.8099160684
 C          0.4194916778        1.5905111988        3.9423728154
 C         -0.9639453345        1.4097699542        4.1233737910
 C         -1.6809490746        0.7761100828        3.1340864096
 C         -1.0804377796        0.3472057228        1.9505719438
 P         -2.2348834475       -0.4732698984        0.8238984356
 C         -1.2633967342       -1.0756218704       -0.5845650615
 C         -1.2949294246       -0.4126918487       -1.8185716007
 C         -0.6947698854       -0.9599874196       -2.9298312292
 C         -0.0779297854       -2.2021268242       -2.8373167235
 C         -0.0681075335       -2.8820672909       -1.6312955958
 C         -0.6564586270       -2.3507299615       -0.4948216733
 C         -0.7802346620       -3.1498299340        0.7763140512
 C          0.3328298476       -4.1775211652        0.9716381616
 C         -2.1373546780       -3.8634138032        0.7886167726
 C         -3.1601776411        0.9369940588        0.0884916485
 C         -2.7923358108        2.2516314677        0.3624991536
 C         -3.5433679431        3.3077653371       -0.1156528774
 C         -4.6823993358        3.0592466087       -0.8627781693
 C         -5.0638344662        1.7550176257       -1.1221417583
 C         -4.3222926618        0.6802731004       -0.6509850487
 C         -4.7753229898       -0.7326455358       -0.9205218354
 C         -4.8364162624       -1.0324308616       -2.4174324123
 C         -6.1230943046       -0.9981627830       -0.2485750957
 H          1.5085586905        2.9723625790       -3.3311212950
 H         -0.0616704124        2.1683521546       -3.4413690679
 H          1.3596683650        1.2659440513       -2.9010211788
 H         -0.0371218731        1.8218063355       -0.9608077270
 H          0.2112717315        4.6958416484       -1.9729839537
 H         -1.2512151072        3.7376153403       -1.7723444718
 H         -0.3498160545        4.2726073263       -0.3512499163
 H          2.2773140796        4.7304713000       -1.1486387140
 H          4.4238902793        4.7974657322        0.0332223666
 H          5.2502449644        2.7801818262        1.2094855382
 H          3.9272668403        0.7194025559        1.1865988863
 H          1.7329708569       -1.3256243589        2.7508851623
 H          3.3496271020       -3.0462336489        3.4243784337
 H          4.9621945317       -3.9337453324        1.7651372250
 H          4.9244097381       -3.1068972615       -0.5373616367
 H          2.3813400686       -0.6761844435       -1.7937265191
 H          5.4381994652       -0.8520636515       -1.7594506057
 H          4.4749329762        0.5624287493       -1.3297782346
 H          4.4843052287       -0.0236681261       -2.9937066671
 H          2.5807021535       -3.1610237343       -2.3530494867
 H          3.0829389686       -2.0568501620       -3.6375800832
 H          4.2951412473       -2.8905093915       -2.6738702776
 H          2.1023234154        1.2837844940        2.6870859427
 H          1.0022770828        2.0743456842        4.7130939565
 H         -1.4504967555        1.7699266402        5.0160149312
 H         -2.7498995177        0.6332997519        3.2443183168
 H         -1.7987546921        0.5405648760       -1.8939638736
 H         -0.7209040564       -0.4366935720       -3.8744244800
 H          0.3722318387       -2.6470029254       -3.7120981397
 H          0.3828885162       -3.8616450442       -1.5864448048
 H         -0.7564612326       -2.4427929660        1.6176507002
 H          1.3089640553       -3.7416552791        0.7795519857
 H          0.3176048792       -4.5436365924        1.9957116361
 H          0.1922571258       -5.0309322627        0.3115662151
 H         -2.2265115418       -4.5158838561       -0.0779968201
 H         -2.2360005932       -4.4635051613        1.6900780900
 H         -2.9535334744       -3.1435766961        0.7644752003
 H         -1.9059559491        2.4454507523        0.9495252211
 H         -3.2416715207        4.3231861263        0.0964681445
 H         -5.2760932756        3.8800342276       -1.2384641839
 H         -5.9604349120        1.5727859533       -1.6966298210
 H         -4.0364036048       -1.4126266040       -0.4745451327
 H         -3.8601378120       -0.8829078647       -2.8739361908
 H         -5.1356473318       -2.0660045189       -2.5782450020
 H         -5.5554761404       -0.3864779866       -2.9154700235
 H         -6.0569511562       -0.7950666028        0.8184236650
 H         -6.8999582072       -0.3653509515       -0.6712275137
 H         -6.4132900236       -2.0375630574       -0.3859006188
  92
  -118.667321656900       0.142100981641452      !
 C          0.8167865726        2.1948262618       -2.8533313284
 C          0.5113503170        2.6245658651       -1.4168230675
 C         -0.2999689659        3.9167783016       -1.4095400064
 C          1.7950777419        2.7137316524       -0.6381811019
 C          2.5483636382        3.8722736418       -0.6035167525
 C          3.7641609935        3.9260207046        0.0659853487
 C          4.2449294349        2.7930602273        0.7079906614
 C          3.5182861641        1.6240743682        0.6810698836
 C          2.2832540765        1.5636377892        0.0104947123
 P          1.2169145442        0.1081858401        0.2827833652
 C          2.4566244279       -1.1755582977        0.7017248571
 C          2.4727258428       -1.7138947311        1.9896972062
 C          3.3988635677       -2.6722672952        2.3443572829
 C          4.2969623194       -3.1432627500        1.3968828052
 C          4.2445878447       -2.6589414145        0.1018056581
 C          3.3251455196       -1.6899120021       -0.2760640853
 C          3.2791576383       -1.2026287554       -1.7012425907
 C          4.4437181766       -0.2586473734       -2.0075280506
 C          3.2931206652       -2.3647244067       -2.6970973022
 C          0.3261053206        0.4092706773        1.8070582941
 C          1.0407606484        1.0921976627        2.8268913068
 C          0.4354325443        1.5120291903        3.9763523285
 C         -0.9446397990        1.3210468345        4.1706034566
 C         -1.6720802347        0.7099580643        3.1743464011
 C         -1.0840098938        0.3069403387        1.9760084767
 P         -2.2494735799       -0.4733041253        0.8339329304
 C         -1.2636925022       -1.1223534713       -0.5453798201
 C         -1.2660054811       -0.4899233896       -1.7945443223
 C         -0.6655386046       -1.0783038708       -2.8852530084
 C         -0.0698012182       -2.3260224410       -2.7510691222
 C         -0.0742789175       -2.9687408077       -1.5251756863
 C         -0.6718171900       -2.3990012122       -0.4112966769
 C         -0.8232320868       -3.1603540640        0.8800248287
 C          0.2761354428       -4.1922773200        1.1231114259
 C         -2.1886035371       -3.8579625473        0.8913696538
 C         -3.1144285687        0.9600277274        0.0723780086
 C         -2.7520161651        2.2640501213        0.4003670445
 C         -3.4776701259        3.3386177665       -0.0759086824
 C         -4.5863413906        3.1196901441       -0.8762206809
 C         -4.9650507548        1.8258658258       -1.1872447678
 C         -4.2506461208        0.7329619533       -0.7167989434
 C         -4.7093993671       -0.6687822781       -1.0332938278
 C         -4.7635634782       -0.9276285412       -2.5382270608
 C         -6.0654616759       -0.9401390497       -0.3796317743
 H          1.4644403330        2.9262177082       -3.3332021360
 H         -0.1029463065        2.1147736368       -3.4287194761
 H          1.3196957990        1.2303156495       -2.8632887487
 H         -0.0898067350        1.8326756212       -0.9412276598
 H          0.1694428341        4.6777101545       -2.0289396895
 H         -1.2962578849        3.7298365538       -1.8051997666
 H         -0.3978702546        4.3016868990       -0.3971662790
 H          2.1946273699        4.7556575994       -1.1128507867
 H          4.3342287581        4.8425770459        0.0787278791
 H          5.1921246432        2.8225566145        1.2278294131
 H          3.9043916024        0.7404146514        1.1715710468
 H          1.7652809631       -1.3544587778        2.7230145859
 H          3.4205719825       -3.0536740167        3.3546220609
 H          5.0243836015       -3.8955867796        1.6635015951
 H          4.9367908245       -3.0470186700       -0.6303062811
 H          2.3329605544       -0.6529699652       -1.8231131406
 H          4.4069460925        0.6259140247       -1.3777414330
 H          4.4021773145        0.0572002342       -3.0479478688
 H          5.3925511253       -0.7634986961       -1.8373152453
 H          2.5922264887       -3.1377760031       -2.3956302794
 H          3.0159508381       -2.0072145724       -3.6862905209
 H          4.2853461321       -2.8042348281       -2.7665968295
 H          2.1035961589        1.2430481917        2.6933717502
 H          1.0256930641        1.9821983508        4.7498547023
 H         -1.4210768466        1.6572163256        5.0779115761
 H         -2.7393097209        0.5624144416        3.2932986489
 H         -1.7519799469        0.4696480837       -1.8998005020
 H         -0.6752992325       -0.5818971873       -3.8445977488
 H          0.3758020650       -2.8047816596       -3.6102462526
 H          0.3700842419       -3.9493150311       -1.4464797275
 H         -0.8053154277       -2.4305182217        1.7014893157
 H          1.2593503927       -3.7691764200        0.9379781386
 H          0.2384405036       -4.5306181284        2.1561322573
 H          0.1405663108       -5.0619528589        0.4836049438
 H         -2.2677479377       -4.5430221417        0.0493127437
 H         -2.3127647389       -4.4210983021        1.8133319790
 H         -2.9954375101       -3.1303533698        0.8220620351
 H         -1.8898703616        2.4353307220        1.0292175126
 H         -3.1809551308        4.3453170951        0.1799923422
 H         -5.1610518408        3.9548757189       -1.2494534550
 H         -5.8399204022        1.6666189577       -1.8007542334
 H         -3.9807103582       -1.3680550781       -0.6007562467
 H         -5.4847921402       -0.2729721580       -3.0214199231
 H         -3.7871615716       -0.7611097302       -2.9878257769
 H         -5.0566669486       -1.9580490282       -2.7279982494
 H         -6.3686395560       -1.9701808104       -0.5544588805
 H         -6.0043101958       -0.7740910715        0.6939907789
 H         -6.8301659311       -0.2823177325       -0.7856781846
  92
  -118.667309552100       0.140292384603363      !
 C          0.8176656472        2.3044847523       -2.8458436748
 C          0.5522898530        2.7607182248       -1.4098235711
 C         -0.2027893809        4.0865380350       -1.4001270684
 C          1.8471855360        2.7997632284       -0.6441721911
 C          2.6571254430        3.9212873859       -0.6371055828
 C          3.8716491632        3.9314086269        0.0360898634
 C          4.2933554984        2.7957430960        0.7125875051
 C          3.5115627062        1.6612742272        0.7084262594
 C          2.2819534715        1.6451765545        0.0291320277
 P          1.1587966903        0.2242041842        0.2762520849
 C          2.3630021309       -1.1113804404        0.6631401809
 C          2.3897941980       -1.6385147401        1.9535645380
 C          3.2924367939       -2.6253848988        2.2944422483
 C          4.1572113601       -3.1252476729        1.3323975309
 C          4.1002515566       -2.6402251626        0.0378925261
 C          3.2033309365       -1.6443473538       -0.3252864086
 C          3.1535147697       -1.1439344098       -1.7453792882
 C          4.3361895422       -0.2227740510       -2.0518659732
 C          3.1299108093       -2.2961660705       -2.7515170413
 C          0.2979678251        0.5231096661        1.8085897847
 C          0.9627506398        1.2965098738        2.7974139342
 C          0.3701833461        1.6048115464        3.9884428136
 C         -0.9532868477        1.2108345049        4.2581520932
 C         -1.6518432122        0.5334459681        3.2815960605
 C         -1.0734510229        0.2128570880        2.0574814110
 P         -2.2167201400       -0.5311303614        0.8762738107
 C         -1.1884463655       -1.1959964667       -0.4779438473
 C         -1.1500215464       -0.5440641381       -1.7225115170
 C         -0.6329583639       -1.1711413058       -2.8352697976
 C         -0.1780436575       -2.4759769092       -2.7380201838
 C         -0.2129345992       -3.1337842508       -1.5151850530
 C         -0.7191474342       -2.5219656513       -0.3818778051
 C         -0.8620315979       -3.2708204966        0.9189108273
 C          0.2442409345       -4.2970166568        1.1561731492
 C         -2.2292925832       -3.9617020328        0.9520411171
 C         -3.0207305251        0.9084817556        0.0761387544
 C         -2.6578805285        2.2106241125        0.4234521208
 C         -3.3582703660        3.2923653958       -0.0688841298
 C         -4.4475522123        3.0886772156       -0.9024815461
 C         -4.8309447826        1.7990295161       -1.2276961086
 C         -4.1426202406        0.6974538232       -0.7425322629
 C         -4.6029262548       -0.6986739364       -1.0798589175
 C         -4.6043759546       -0.9503731031       -2.5871113990
 C         -5.9836748257       -0.9631512608       -0.4774595298
 H          1.4838124514        3.0049182155       -3.3461022663
 H         -0.1146028610        2.2519615963       -3.4044467309
 H          1.2838698542        1.3215789785       -2.8520849139
 H         -0.0784005952        2.0016458449       -0.9198427799
 H          0.2938861322        4.8266341316       -2.0234369713
 H         -1.2085452021        3.9400161904       -1.7887480467
 H         -0.2778941379        4.4757300115       -0.3873160355
 H          2.3476368105        4.8079583210       -1.1689759648
 H          4.4865247297        4.8187140653        0.0278042348
 H          5.2370445560        2.7947977188        1.2395666564
 H          3.8503816259        0.7711073176        1.2214474269
 H          1.7100578046       -1.2498880435        2.6987892883
 H          3.3217275002       -3.0035185035        3.3057399588
 H          4.8662874052       -3.8988487518        1.5877564126
 H          4.7700554898       -3.0479569448       -0.7043811424
 H          2.2190626472       -0.5717650301       -1.8512242916
 H          4.3287313655        0.6515726035       -1.4068407889
 H          4.2887412928        0.1112311010       -3.0863004510
 H          5.2748414406       -0.7525929178       -1.9024776786
 H          2.4189521689       -3.0575168044       -2.4438136346
 H          2.8421269973       -1.9255041848       -3.7328028337
 H          4.1125187083       -2.7532436991       -2.8409631532
 H          1.9796420157        1.6112789394        2.6064614280
 H          0.9282375435        2.1513224286        4.7352647487
 H         -1.4137637080        1.4514690759        5.2031556887
 H         -2.6844071610        0.2513268393        3.4482599267
 H         -1.5421322408        0.4595007958       -1.8035847916
 H         -0.6083938993       -0.6555198055       -3.7846747910
 H          0.1860864391       -2.9893614363       -3.6155516661
 H          0.1376818148       -4.1532865691       -1.4608110005
 H         -0.8288231720       -2.5332216735        1.7318898225
 H          1.2225012333       -3.8666453532        0.9590251438
 H          0.2183797619       -4.6314817687        2.1908664267
 H          0.1098765601       -5.1700153719        0.5213201063
 H         -2.3239722150       -4.6513939540        0.1153832622
 H         -2.3462080014       -4.5181876201        1.8790021014
 H         -3.0311319720       -3.2277570349        0.8873927833
 H         -1.8146906637        2.3730001647        1.0800737389
 H         -3.0605640718        4.2950209498        0.2013818753
 H         -5.0024399117        3.9314014034       -1.2880655000
 H         -5.6904168922        1.6510085848       -1.8656221348
 H         -3.8961298531       -1.4064038836       -0.6242716645
 H         -5.2981783488       -0.2832300342       -3.0929955888
 H         -3.6094255518       -0.7937495803       -2.9981876586
 H         -4.9035490584       -1.9758764847       -2.7936088273
 H         -6.2876635453       -1.9904797855       -0.6664664538
 H         -5.9612764766       -0.7999100214        0.5979072994
 H         -6.7279399392       -0.2989426054       -0.9098156997
