32
 energy: -50.584174652717 gnorm: 0.000055478480 xtb: 6.7.1 (edcfbbe)
C           -5.33766023972943        0.52437811500531        0.00002082263565
C           -4.60242944145783        1.70727474407958        0.00001431673926
C           -3.22018777770779        1.68949451349583        0.00000731011522
C           -2.56939561195981        0.46288770833536        0.00000703929278
C           -3.32770138557785       -0.73140144286709        0.00001329129587
C           -4.71318889029907       -0.70991354253325        0.00002019100631
N           -2.46841064199250       -1.80293226981629        0.00001159785264
C           -1.17255202146334       -1.35200898806850        0.00000488558439
C           -0.00001125775983       -2.08954853182885        0.00000046249574
C            1.17253747759275       -1.35202165586344       -0.00000432202928
N            2.46839122534572       -1.80295894090204       -0.00000674438547
C            3.32769354638422       -0.73143739818338       -0.00001046814540
C            4.71318128449509       -0.70996446405527       -0.00001288204587
C            5.33766596608120        0.52432044634518       -0.00001621913981
C            4.60244794533400        1.70722502067886       -0.00001745211542
C            3.22020609200740        1.68945972178480       -0.00001506356738
C            2.56940067704477        0.46285994454990       -0.00001129655592
C            1.18451283523569        0.07146068369988       -0.00000699773226
C            0.00000430561066        0.79104469110609       -0.00000448920947
C           -1.18451199810829        0.07147348374610        0.00000178370279
H           -6.41710176651848        0.57226020434661        0.00002604742497
H           -5.12550538395082        2.65274667557872        0.00001475529424
H           -2.65571817801010        2.61020761616016        0.00000248572178
H           -5.28618191746698       -1.62575573447411        0.00002489789618
H           -2.74593524590099       -2.76966339818440        0.00001396841873
H           -0.00001708071224       -3.16901418252897        0.00000274329375
H            2.74590537654712       -2.76969306959926       -0.00000473843765
H            5.28616441989900       -1.62581284453984       -0.00001206344402
H            6.41710800993025        0.57219088367541       -0.00001849307884
H            5.12553410699216        2.65269129772795       -0.00002066812656
H            2.65574643002288        2.61017891685466       -0.00001589466387
H            0.00001014008893        1.86996979627254       -0.00000680609309
