32
 energy: -50.584174614878 gnorm: 0.000047663274 xtb: 6.7.1 (edcfbbe)
C           -5.33760209520548        0.62069043337114       -0.00147577796251
C           -4.60235644416159        1.80357702360858       -0.00086573426266
C           -3.22009676771142        1.78576357748451        0.00014719611766
C           -2.56934168030556        0.55914726258686        0.00044484590890
C           -3.32766165604394       -0.63514006771588       -0.00021716884732
C           -4.71312598838004       -0.61362930417035       -0.00113015168941
N           -2.46839367152779       -1.70667709898551       -0.00007784270936
C           -1.17255393283493       -1.25577768330925        0.00029301850177
C           -0.00000941512664       -1.99331080484168       -0.00017158549387
C            1.17254977873756       -1.25579971974459       -0.00011160012321
N            2.46838060451578       -1.70672394857006       -0.00102631069600
C            3.32766788427431       -0.63520434449282       -0.00105056085934
C            4.71313301677590       -0.61371807026861       -0.00227997836935
C            5.33763244556269        0.62059240584801       -0.00196865328292
C            4.60240867212944        1.80349463643274       -0.00037577667023
C            3.22014725065305        1.78570519574433        0.00077016244596
C            2.56937082617576        0.55909909535521        0.00033276023467
C            1.18451165557647        0.16769564367092        0.00082213916364
C            0.00001732722909        0.88730143203761        0.00136995103319
C           -1.18449018506797        0.16771758777292        0.00090534114420
H           -6.41703493276111        0.66856522709829       -0.00235945448010
H           -5.12538466902171        2.74906934010583       -0.00122057288587
H           -2.65562282531422        2.70648178607600        0.00066720745520
H           -5.28617697920658       -1.52943875956138       -0.00171136729568
H           -2.74592863061354       -2.67340545404282       -0.00079674220817
H           -0.00002065951582       -3.07278632893756       -0.00075161752709
H            2.74588441368563       -2.67345976295200       -0.00239083589222
H            5.28616861966051       -1.52953859689728       -0.00350553674127
H            6.41706625076343        0.66844761363655       -0.00293294941047
H            5.12545555048127        2.74897992180631       -0.00003285693144
H            2.65568820907592        2.70643072118765        0.00199463469082
H            0.00002738690765        1.96622923483525        0.00188480294463
