32
 energy: -50.475048475845 gnorm: 0.000043027462 xtb: 6.7.1 (edcfbbe)
C           -5.36771593246606        0.58082611267500        0.00733226168589
C           -4.62998695684324        1.78176062910368        0.00316135862423
C           -3.25620745643107        1.78910124664935       -0.00098963100062
C           -2.57469671322846        0.56509993058511       -0.00094802543340
C           -3.34354288611571       -0.65048678580609        0.00274496443899
C           -4.72902292844307       -0.64477498916784        0.00700011562046
N           -2.46647597867260       -1.69319194827370        0.00209972664321
C           -1.18141520277598       -1.22146361417947       -0.00106324455732
C            0.00890975091463       -1.98083763534549       -0.00099307562684
C            1.18457984959131       -1.23200845602835       -0.00158255915813
N            2.47809601526979       -1.70052414564136        0.00085864611573
C            3.34869364108512       -0.65475325750405        0.00179200042861
C            4.73077351589763       -0.63896407915472        0.00563548167755
C            5.36316284959328        0.59378394557006        0.00676427670867
C            4.61615156696621        1.79419754687885        0.00377977257871
C            3.24797547726399        1.79758513083681       -0.00019474091279
C            2.56600128486893        0.56166341069145       -0.00107021618135
C            1.21183542727591        0.18173930567111       -0.00318628898267
C           -0.00419884999662        0.93254838500694       -0.00514250473598
C           -1.20489244882145        0.18693344658203       -0.00308613110077
H           -6.44611193600107        0.62537406287921        0.01089007381158
H           -5.17021607189097        2.71797533592832        0.00338078441394
H           -2.70489565475621        2.71752644315750       -0.00401722600779
H           -5.29039382939570       -1.56798282604823        0.01018301615438
H           -2.72309917627466       -2.66830258795566        0.00427213713916
H            0.00333597436746       -3.05862256436069        0.00062010001416
H            2.73808999824548       -2.67406676636143        0.00264062298740
H            5.29981394463595       -1.55741035906026        0.00797062830954
H            6.44103677549382        0.64513120809450        0.01008791702226
H            5.15493548376633        2.73153052022589        0.00484782048441
H            2.68959786020772        2.72147569088509       -0.00229884482281
H           -0.00034600801912        2.00771312115243       -0.00692624362669
