57
 energy: -83.667027528781 gnorm: 0.000066961024 xtb: 6.7.1 (edcfbbe)
C            5.82908506126563        0.93367368434241        1.01648480767953
N            4.85254575617713        1.47952641487734        0.10448638294438
C            5.25555376313262        2.54707100760277       -0.77904872486631
C            3.58444252087816        0.97892704325365        0.06076840318877
C            2.67020234136684        1.38180579570528       -0.92833816787370
C            1.38968573902548        0.87501284470419       -0.96951692140761
C            0.96730110994776       -0.05520991357171       -0.02755326419219
N           -0.34720239289218       -0.56894762111028       -0.05995143249944
C           -0.72621219414038       -1.88241276849955       -0.09896683392744
C            0.17173994182432       -3.02154561689892       -0.20443750864566
C            1.37314551109741       -2.96655277586726       -0.90934347251843
C            2.18439540544958       -4.08366354432764       -0.98783930106252
C            1.80793432548236       -5.26847422664963       -0.37678798833473
C            0.60257661433183       -5.33801440012127        0.30420342596156
C           -0.21114389698264       -4.22505206561439        0.38919026489266
N           -2.03412193858034       -1.99917282577374       -0.05708021449121
C           -2.54291407181900       -0.73755980734281        0.00388607415383
C           -3.97900042783360       -0.52014099856846        0.10041323808668
C           -4.51460872360310        0.59879189060286        0.73670834959982
C           -5.88435818132337        0.76880629292282        0.81442196052933
C           -6.73974898904483       -0.17530692706584        0.26949563894392
C           -6.21617731727305       -1.30025753082544       -0.34775251086701
C           -4.84801480213665       -1.47355868546726       -0.43007668304001
C           -1.50145828853936        0.17802387117654       -0.00110040982973
C           -1.50295355914838        1.63537541530069        0.01550517399586
C           -2.32318745170602        2.33858709734498       -0.86691235303675
C           -2.32847729475180        3.72036905104062       -0.86645460128659
C           -1.51280941636671        4.42066838759211        0.00853473532463
C           -0.69723180696552        3.73025568369768        0.88959535291438
C           -0.69135207239473        2.34745403859721        0.89699443582406
C            1.85420010706486       -0.46367383414303        0.96219059172560
C            3.13560242696095        0.03908280538134        1.00583475472619
H            5.61400472876972        1.21499854055338        2.05327990287101
H            6.81532243303554        1.31043790415880        0.75711791168686
H            5.85603353987878       -0.15664931656924        0.94825175060923
H            5.35284786269149        2.20113187589628       -1.81426342901994
H            6.21716656037377        2.93836790496659       -0.45625797639286
H            4.53233743619953        3.36547691160996       -0.75026850144205
H            2.96004932525748        2.09020027209130       -1.68581695052242
H            0.70871295588530        1.19597356536794       -1.74483016925266
H            1.66776082214338       -2.05581386543671       -1.40898943872462
H            3.11414768029041       -4.02901991132419       -1.53551430882073
H            2.44695787219909       -6.13711381299676       -0.43856437482001
H            0.29776586800289       -6.26266279938232        0.77255599868836
H           -1.15401800564353       -4.26356388105060        0.91347244099970
H           -3.85527539380911        1.33076732319710        1.18000256092201
H           -6.28695280926262        1.64175720548457        1.30875275043673
H           -7.80965505715338       -0.03769248519748        0.33157040744625
H           -6.87841213125011       -2.04471516428966       -0.76670416603934
H           -4.42643387440749       -2.34755547665664       -0.90368434265320
H           -2.95431986044245        1.78937518021966       -1.55115754858486
H           -2.96833777879340        4.25320874515955       -1.55494067487191
H           -1.51554365932914        5.50078052945180        0.00473706006008
H           -0.06382209172861        4.27038156640279        1.57838334250878
H           -0.06321469732096        1.81455481366848        1.59628557943202
H            1.52951057159777       -1.18116821713198        1.70274274109466
H            3.78593290433285       -0.29534219049874        1.79628723176325
