  55
        -91.05342174
 C         -5.8346777366        2.4732216269       -2.2691359407
 C         -4.4991415574        2.8111837944       -2.1466682801
 C         -3.6537696367        2.0551795539       -1.3530106685
 C         -4.1338327157        0.9477746350       -0.6599291014
 C         -5.4863858592        0.5996088432       -0.8092285711
 C         -6.3253647661        1.3611664877       -1.6030806269
 O         -6.0294262922       -0.4976224815       -0.1958067085
 C         -5.2042044558       -1.2633119630        0.5842331680
 C         -5.7617623054       -2.3717293886        1.1963866815
 C         -4.9876374418       -3.1782582903        2.0157442927
 C         -3.6578048163       -2.8633206824        2.2278687457
 C         -3.0923690875       -1.7565930882        1.6181646703
 C         -3.8491929028       -0.9469873313        0.7762184581
 N         -3.3155760193        0.1692975266        0.1466108615
 C         -1.9528562381        0.5176984496        0.3366177960
 C         -1.6266058547        1.6628396539        1.0533843779
 C         -0.3005558989        2.0075980162        1.2437534684
 C          0.7294685518        1.2158137842        0.7350366571
 N          2.0125117664        1.5152078706        0.9046963942
 C          2.9846439842        0.7545698705        0.4169253910
 C          4.3579648488        1.0926979626        0.6183827245
 C          4.6736679761        2.2550095882        1.3417736989
 C          5.9781722797        2.6156657824        1.5560292712
 C          7.0054863492        1.8179692576        1.0502891820
 C          6.7150625467        0.6775333980        0.3405976704
 C          5.3918819592        0.2774615101        0.1007258110
 C          5.0515447733       -0.9133812451       -0.6419162407
 C          6.0148086313       -1.7756605258       -1.1867872721
 C          5.6587081572       -2.9004467604       -1.8909765042
 C          4.3132356472       -3.2163973504       -2.0833222397
 C          3.3450969378       -2.3976383881       -1.5638839194
 C          3.6905184136       -1.2439656724       -0.8407725919
 C          2.6485242621       -0.4188960195       -0.3149522724
 N          1.3718665517       -0.7342222904       -0.4898771629
 C          0.3872338990        0.0194625146       -0.0064725676
 C         -0.9551563601       -0.2953719213       -0.1930410234
 H         -6.4951385674        3.0632481266       -2.8844254456
 H         -4.1044611584        3.6667465352       -2.6725112763
 H         -2.6111264014        2.3178403265       -1.2698203175
 H         -7.3582611439        1.0639179883       -1.6881632656
 H         -6.8045006992       -2.5825816254        1.0210902734
 H         -5.4285905691       -4.0416477508        2.4880152200
 H         -3.0497630412       -3.4777573158        2.8734703723
 H         -2.0572934677       -1.5124447867        1.7956505680
 H         -2.4130580931        2.2794985321        1.4615762177
 H         -0.0355885823        2.8924403876        1.7999527446
 H          3.8562090133        2.8501948275        1.7193733720
 H          6.2135431122        3.5111535031        2.1118199474
 H          8.0349602771        2.0994086130        1.2171842405
 H          7.5329958686        0.0840964492       -0.0361386672
 H          7.0635072344       -1.5608705055       -1.0570520503
 H          6.4246072358       -3.5439281270       -2.2987315870
 H          4.0402823497       -4.1015078105       -2.6386082853
 H          2.2958502766       -2.6144250688       -1.6944884233
 H         -1.2098353476       -1.1777029763       -0.7588149350
