55
 energy: -91.059771720097 gnorm: 0.000052777174 xtb: 6.7.1 (edcfbbe)
C           -5.83083463421307        2.47509451828645       -2.27053357049904
C           -4.49531069264623        2.81019833546980       -2.14853904427757
C           -3.65132568203709        2.05212677646523       -1.35442193078424
C           -4.13315240073789        0.94660695465266       -0.66086318423578
C           -5.48557078275331        0.60078882763712       -0.81027273207507
C           -6.32301183727721        1.36357162740317       -1.60394648452781
O           -6.03155839069161       -0.49627452332582       -0.19706302648945
C           -5.20728792947456       -1.26290407779089        0.58466441264538
C           -5.76785112036242       -2.36874363142854        1.19784387680765
C           -4.99671927161795       -3.17661588933694        2.01922643109407
C           -3.66699638286999       -2.86477888043934        2.23185765140710
C           -3.09859318980557       -1.75983520319617        1.62049314867325
C           -3.85222253104946       -0.94995002371689        0.77703683991825
N           -3.31522538682861        0.16577711574873        0.14621406895694
C           -1.95353952738149        0.51384138305560        0.33765472197018
C           -1.62714183899976        1.66193187715017        1.05057830041531
C           -0.30173978824830        2.00710102891690        1.24072958053492
C            0.72795074277476        1.21428867728700        0.73594657656344
N            2.01278368467162        1.51383602271728        0.90517330605702
C            2.98655922364118        0.75202661389981        0.41823930390173
C            4.35980909582519        1.09239900733788        0.61923622961262
C            4.67498718594493        2.25250358710095        1.34585432477287
C            5.97952256990093        2.61348381852640        1.55985362942222
C            7.00670376027818        1.81910594338403        1.04977960724603
C            6.71654497262857        0.68089642413404        0.33654961645732
C            5.39348489393999        0.28035267399402        0.09806667780540
C            5.05348564557985       -0.91021289140569       -0.64640515632717
C            6.01731090887126       -1.76765482523051       -1.19753756394492
C            5.66169479290715       -2.89403617342845       -1.89980211579333
C            4.31674370089759       -3.21576129377075       -2.08355616321970
C            3.34809602142313       -2.40016770001716       -1.55958360267208
C            3.69319115489351       -1.24470811786885       -0.83921172712264
C            2.65170385994074       -0.42063667618258       -0.31052296190711
N            1.37326559079367       -0.73764413908724       -0.48369393624876
C            0.38667195373381        0.01639102449877       -0.00174026242474
C           -0.95493314330464       -0.29951861887178       -0.18740379054629
H           -6.49066725536674        3.06606032024557       -2.88567408213990
H           -4.09854766583553        3.66505521743248       -2.67392585689247
H           -2.60820966622391        2.31344798105501       -1.27218370260661
H           -7.35637389436461        1.06791750598873       -1.68928359037048
H           -6.81102007069448       -2.57714253098244        1.02205621139114
H           -5.44068900436783       -4.03801598291177        2.49242020599825
H           -3.06054324088495       -3.47934055121244        2.87894683332560
H           -2.06306026901359       -1.51826874421075        1.79946152683774
H           -2.41383315975819        2.28050366070579        1.45514750876806
H           -0.03765455642490        2.89474321972336        1.79304879999661
H            3.85846202980276        2.84646463475563        1.72744250357204
H            6.21447548628194        3.50666624917190        2.11947355965868
H            8.03611895566684        2.10062465887447        1.21673969980087
H            7.53437582866323        0.08952212201744       -0.04343018945621
H            7.06587576448697       -1.54818035212500       -1.07398834232561
H            6.42783541957058       -3.53433979547706       -2.31194254192164
H            4.04398522618098       -4.10269104427722       -2.63594723532706
H            2.29931945240427       -2.62221676488303       -1.68543023259366
H           -1.20893417664510       -1.18488329619640       -0.74889395649408
