55
 energy: -91.101448308218 gnorm: 0.000066590217 xtb: 6.7.1 (edcfbbe)
C           -5.92044265240236        2.45423707678249        2.40870724749074
C           -4.56822124493803        2.72829949664358        2.37811541066166
C           -3.72084003387657        1.98713312623012        1.56866662838593
C           -4.21654299803257        0.96863878648414        0.76389705199272
C           -5.58483100211076        0.67455171245322        0.83047720973028
C           -6.42535916341958        1.41623558215526        1.63947883364319
O           -6.15008069511156       -0.35534031784207        0.12202126581786
C           -5.31747623273014       -1.12015241758034       -0.65678453501306
C           -5.90034114818378       -2.16332025172491       -1.35224864285211
C           -5.13540851746157       -2.96152747604451       -2.18933537931057
C           -3.78870964139030       -2.69750186124646       -2.33450571601420
C           -3.19834849115513       -1.65546192268568       -1.63591394876745
C           -3.94456224368426       -0.86286381954288       -0.77302491283592
N           -3.38848438166249        0.20526344082505       -0.06232652026843
C           -2.02728145602141        0.54192754456046       -0.19999772273802
C           -1.69080416599672        1.81001495295672       -0.73436843910574
C           -0.38922818497090        2.17397857137290       -0.90567786201666
C            0.64755844303335        1.28432023966349       -0.54496798965227
N            1.92566044130634        1.63977705745597       -0.71987008121000
C            2.86340545312716        0.78186678225250       -0.35940336420708
C            4.25138148643491        1.13837137308348       -0.55014384742537
C            4.56754632000643        2.36913531753099       -1.13252541723215
C            5.87749328391752        2.73430757289127       -1.33626323428071
C            6.89458323725310        1.86527445262520       -0.95769858529648
C            6.59653325858062        0.65025343241916       -0.38038568338091
C            5.27341064113988        0.25116707246402       -0.15773547810980
C            4.93199528714787       -1.02662723530098        0.45236944569827
C            5.90230788845779       -1.93667680161221        0.88827617991311
C            5.55452215137793       -3.14139877883236        1.45933511218898
C            4.21718127416830       -3.48705075507223        1.61706230173760
C            3.24101981818964       -2.61216233878652        1.20151903999825
C            3.58032686143994       -1.38562441116149        0.62360652077883
C            2.52784575391259       -0.48411474040932        0.20962928460654
N            1.27047017343357       -0.85165176757603        0.37078842539787
C            0.31106505006936        0.00871334032983       -0.00068333691067
C           -1.04278577214643       -0.34233145960756        0.16345284787165
H           -6.58439078238454        3.03003065362299        3.03387924344812
H           -4.15678081973705        3.51802703415984        2.98767470280201
H           -2.66295730163968        2.19890947731440        1.56894537547728
H           -7.47310558668188        1.16210759876604        1.65621346113743
H           -6.95872249422062       -2.32898206903424       -1.22938844431894
H           -5.59854058293090       -3.77383545897780       -2.72679185408107
H           -3.18229208193022       -3.29758165304236       -2.99530839133339
H           -2.14792181953819       -1.45297074074083       -1.77245466460356
H           -2.49188545775951        2.47670508339793       -1.01871622462994
H           -0.11809788241909        3.13123408228677       -1.32271772785014
H            3.75209104963936        3.01583413609850       -1.41588652362056
H            6.11675048668786        3.68551170722625       -1.78768300369147
H            7.92663760134782        2.14208638365690       -1.11676352290527
H            7.41240155164132        0.00256331127889       -0.10208495247288
H            6.94988944198051       -1.70349375775160        0.78461939730003
H            6.32850915681357       -3.82041145681338        1.78637360078634
H            3.95029367387596       -4.43298865024492        2.06397323842041
H            2.19327907786679       -2.84404284651792        1.31065981271530
H           -1.27971802828452       -1.30836141081524        0.58191936813232
