55
 energy: -91.059761815138 gnorm: 0.000044422240 xtb: 6.7.1 (edcfbbe)
C           -4.98448887933182        3.26386209944762        1.91432337316553
C           -3.65463593547505        2.95661078328329        2.13266209086823
C           -3.09040101221054        1.83062943806295        1.55684858624032
C           -3.84806801108278        0.99433972223788        0.74323152214604
C           -5.20352910696993        1.30288919451138        0.54636761745958
C           -5.75998483966882        2.42982131864838        1.12389711548874
O           -6.03292271675811        0.51137559961923       -0.20440232421067
C           -5.49111716680682       -0.60542732505038       -0.78453900056936
C           -6.33377959918396       -1.39244931326331       -1.54854278371564
C           -5.84637454900648       -2.52492443460999       -2.18243333978857
C           -4.51007481306728       -2.85619635449875       -2.05858989894317
C           -3.66104567237714       -2.07394032531119       -1.29388902880874
C           -4.13817728405605       -0.94743580816931       -0.63139983433597
N           -3.31528195263081       -0.14259803263670        0.14712250220515
C           -1.95536800579762       -0.49109461069158        0.34783669440864
C           -1.63488279304496       -1.62843004488820        1.08072007307608
C           -0.31155950538251       -1.97869024127374        1.27521962495090
C            0.72253165904427       -1.20072200492925        0.75659205692187
N            2.00549112802915       -1.50824887666915        0.92528553927051
C            2.98360491918599       -0.75955229239758        0.42687658200515
C            4.35463304373377       -1.11179397914802        0.62236431728500
C            4.66271820057854       -2.27338780750286        1.34963801906549
C            5.96486222369865       -2.64773948079359        1.55508148701080
C            6.99670105485732       -1.86552531351889        1.03570531620976
C            6.71350627046058       -0.72553751692675        0.32250216657073
C            5.39308995205288       -0.31133344567072        0.09287409856523
C            5.06027788659367        0.88154969663340       -0.65110503528087
C            6.02935578434292        1.73286519841481       -1.20249526391703
C            5.68072313607430        2.86157982715908       -1.90451293243824
C            4.33778104417004        3.19161426135863       -2.08816624867413
C            3.36412117450632        2.38229625239358       -1.56372173973871
C            3.70203424996158        1.22509686439214       -0.84273842460403
C            2.65555003070523        0.40981420436571       -0.31024103825849
N            1.37892928426490        0.73284279374233       -0.48601403454190
C            0.38790606018642       -0.01055773872468        0.00347031203465
C           -0.95196381156060        0.30878592639066       -0.18894118357165
H           -5.42517355379931        4.14169508697447        2.35955246974399
H           -3.04472784737142        3.59135174674176        2.75661024300704
H           -2.05483584716450        1.59329506937779        1.74104564650799
H           -6.80361570178560        2.63350697739281        0.94533090701079
H           -7.36745418796203       -1.09877138212262       -1.63686448897039
H           -6.51026778088115       -3.13491929514610       -2.77417544076043
H           -4.11657298244757       -3.72708061211832       -2.55953912059637
H           -2.61747273626658       -2.33306559037173       -1.21088584322465
H           -2.42480093726765       -2.23545182512252        1.49636308732886
H           -0.05244621719058       -2.85920365300435        1.84113707878218
H            3.84271967243465       -2.85824098991967        1.73779322721660
H            6.19432056603568       -3.54242663421594        2.11458014593685
H            8.02423815338312       -2.15803251337911        1.19517361854888
H            7.53481325527321       -0.14415141359091       -0.06531724895045
H            7.07655402455520        1.50718148966383       -1.07851842202532
H            6.45083173109814        3.49731960567727       -2.31632504562276
H            4.07047737360716        4.08035713081509       -2.64031113597663
H            2.31676393060855        2.61136326475511       -1.68882251828660
H           -1.20065552398024        1.18590063490801       -0.76557220292848
