108
 energy: -164.233255672212 gnorm: 0.000065797968 xtb: 6.7.1 (edcfbbe)
C            2.57008948867335      -10.57585005692768       -2.88607361462325
C            2.57211150921547       -9.88060306810442       -1.52893187536816
C            2.22522301202158       -8.39819418447625       -1.65715367092311
C            2.31808150789049       -7.63094471136057       -0.33727903847719
C            1.24016839520038       -8.03389573807806        0.66748577330765
C            1.29662772321130       -7.19873578916401        1.94781651369189
N            1.02571974580700       -5.79820168091344        1.69669994038425
C            1.98387195203470       -4.80271496323195        1.71406869545804
O            3.15349794289359       -4.98114996171930        1.96627816057710
C            1.28017148105136       -3.53545833448900        1.36355176785563
C            2.00495102454276       -2.29093632432557        1.18489239691344
C            3.09922390822285       -1.98133592706798        1.99626223612852
C            3.79531556881555       -0.80434348869704        1.81412766692038
C            3.43892343226963        0.09162082539935        0.80645766143059
C            4.18553787288753        1.34091876319459        0.61259534353924
C            4.48816512647654        1.80009678060888       -0.66890771884715
C            5.18920203236607        2.97468921433291       -0.85432498621860
C            5.60640581740594        3.72141617963328        0.24458336974822
N            6.32037737506772        4.91446958953130        0.06093667281062
C            6.01632777928136        6.13469277507396        0.63177563749268
C            4.95026155768297        6.48849843895399        1.44728434654436
C            4.86512787351963        7.80314989752394        1.86464690987831
C            5.80960808093407        8.75229984649887        1.47819914495533
C            6.85926038175106        8.41171884669566        0.64818038700686
C            6.96610420546621        7.09615068618084        0.21495434552726
C            7.89003840215078        6.41053096710418       -0.64510148417106
C            9.03057692906230        6.80654023750612       -1.33228466647357
C            9.72114232366994        5.86385367563648       -2.06790724991264
C            9.29508161881759        4.53765273598441       -2.11263079536889
C            8.16352333685367        4.11969437972513       -1.43832986908601
C            7.45234285913961        5.06744511214641       -0.71530481476748
C            5.30894946324685        3.27124982417187        1.52841756691505
C            4.60856758552022        2.09530852109313        1.70647824203646
C            2.35716798949438       -0.22966490924807       -0.01615135841546
C            1.64794384516963       -1.39525144361333        0.17151194873348
C           -0.03694182528522       -3.82142476936298        1.18721630787376
C           -1.16573159451893       -2.94554417950165        0.93440157471909
C           -1.21876089912502       -1.66481786046230        1.49441893050929
C           -2.30787092066663       -0.84987930826064        1.27913248494144
C           -3.37799960357515       -1.27572032470670        0.48918202961494
C           -4.53494440347971       -0.40229915206823        0.25667040702223
C           -5.14257438811309       -0.34023398878125       -0.99707423373683
C           -6.23021976112491        0.48013584844262       -1.21861532575240
C           -6.73872133108552        1.26304724630748       -0.18520774394127
N           -7.84132284603837        2.10037265580947       -0.40795112012149
C           -7.96416342832808        3.01838424612851       -1.43266536492570
C           -7.05601303451628        3.36417296525748       -2.42386479043628
C           -7.42442899016077        4.34682386070051       -3.32294331192098
C           -8.66161355033162        4.98291876873356       -3.23963968210494
C           -9.55911361855614        4.66118829688310       -2.24082035650648
C           -9.21149054879068        3.67623414131058       -1.32488638928885
C           -9.86986184328950        3.11667456903146       -0.17728953438371
C          -11.10508292356587        3.33827063145824        0.41851769889129
C          -11.44762547288884        2.59315234560750        1.52944004834124
C          -10.58212271019395        1.62628581901766        2.03770409771526
C           -9.34823485034202        1.38786951035603        1.46285729852439
C           -8.98782572054830        2.15064857215060        0.36052613362407
C           -6.14023887253533        1.20675399236055        1.07100914899666
C           -5.05304234111444        0.38389457281021        1.28549583619769
C           -3.32400347627580       -2.55376064705179       -0.06676151445458
C           -2.24281351866069       -3.38035903381345        0.15793675730482
C           -0.22177420192503       -5.28723324901836        1.39521970618705
O           -1.23918712063686       -5.94020378300029        1.35057118454042
H            2.81429741462548      -11.63013680372684       -2.77584410656990
H            3.30254725565161      -10.12126721805808       -3.55025934863774
H            1.59027125330190      -10.49723027117655       -3.35301996494545
H            1.85028073552632      -10.37447137207954       -0.87652124843546
H            3.55976056224549       -9.97992555952489       -1.07236873148916
H            1.21497632069330       -8.29657996847151       -2.06142850223215
H            2.91355248321201       -7.94003682900026       -2.37203322560958
H            3.30352487606977       -7.78777205837358        0.10794596955153
H            2.22377222529787       -6.56209228910967       -0.55036353094246
H            1.36504403288076       -9.07895908612009        0.95030176642588
H            0.25195150688253       -7.91919187454346        0.21663441390032
H            0.55189885908988       -7.56400028849162        2.66127651832300
H            2.29214399136911       -7.24801462659873        2.39603884828968
H            3.39406606221202       -2.66643932177350        2.77604897475390
H            4.64272327377093       -0.58620307662947        2.44693829830159
H            4.18372762907490        1.22205479190296       -1.52864131538819
H            5.40897389469161        3.32674718896151       -1.85130592483750
H            4.20414808661432        5.76507877746520        1.73950732947283
H            4.04617143430751        8.10281460009634        2.50247382048241
H            5.70975611829391        9.76952954804282        1.82790418429310
H            7.58242183793537        9.15063494999318        0.33632369241091
H            9.36962413554714        7.83076312470436       -1.28489924885659
H           10.60977230320971        6.15161062436201       -2.61066015047841
H            9.86463975625856        3.81926893724949       -2.68433035345219
H            7.85208329801595        3.08636672398066       -1.46624570713228
H            5.64158449314662        3.84195578840159        2.38271643594090
H            4.37244520269653        1.76414454420826        2.70674704464556
H            2.06051125754513        0.45357120142629       -0.79794763495958
H            0.81758108401077       -1.63362618050038       -0.47566001883812
H           -0.40266851653918       -1.32441238724794        2.11341851858318
H           -2.32538078233196        0.13895656311043        1.71243898593810
H           -4.74935683847813       -0.93089136602185       -1.81092801193964
H           -6.70017544561535        0.51094064839760       -2.19036868944487
H           -6.08845418335548        2.88971689758195       -2.48776795443142
H           -6.73661438631056        4.63096335213919       -4.10620750999484
H           -8.91393785049992        5.74375321494409       -3.96381422041492
H          -10.51106341019879        5.16562242083975       -2.16678336502204
H          -11.78246052863016        4.07616054670339        0.01494298023315
H          -12.40252041204809        2.75182939186716        2.00905695129641
H          -10.88405399782795        1.04760800823465        2.89870134898496
H           -8.69320337579155        0.62440815255090        1.85477634430434
H           -6.52508617906618        1.82044776064442        1.87187959942966
H           -4.60875522196085        0.33754806010995        2.26852476767964
H           -4.15022318606877       -2.91250487663207       -0.66231997933663
H           -2.22226342154200       -4.36881582579718       -0.27428391244576
