108
 energy: -164.184380532965 gnorm: 0.000065492213 xtb: 6.7.1 (edcfbbe)
C            9.42011165533903        3.39215915630601       -3.62732414547661
C            8.71152255024069        2.57890615136556       -2.54940495399207
C            9.15833368326581        1.11777564819821       -2.56021309413431
C            8.40299438786120        0.24133878824792       -1.56041938802634
C            8.71414634654996        0.58373686416663       -0.10485579911497
C            8.05541356245015       -0.39335640749919        0.87165724025175
N            6.61580806455353       -0.35630688939544        0.79108966055876
C            5.84862127472272       -1.37707725462319        0.24420016145172
O            6.33248975369650       -2.41382637379761       -0.20552325575750
C            4.47188373143523       -0.92330459269318        0.29741829880568
C            3.41195677421977       -1.53964012987098       -0.42329247934634
C            3.44362765490799       -2.91679447881362       -0.73282940212598
C            2.39490475339639       -3.52056977301771       -1.37782313170055
C            1.27116887462455       -2.78712787072434       -1.79228968571747
C            0.14991896206419       -3.43376181120527       -2.46062116270103
C           -0.22503427425319       -4.74302437928908       -2.13470810772234
C           -1.30343266188407       -5.34848021523110       -2.74081509542931
C           -2.04315452437631       -4.66528867280846       -3.70741576594879
N           -3.14353067110079       -5.26952663174835       -4.31815550078241
C           -4.39080814482192       -4.69521518422003       -4.48119228853506
C           -4.86259696071154       -3.46521038300570       -4.04269937874351
C           -6.18026478452839       -3.14497259272316       -4.31398957853107
C           -7.01739661608695       -4.02627274582506       -4.99375592814328
C           -6.56149326314266       -5.26496263824875       -5.40654237835413
C           -5.24231223988670       -5.60730916330640       -5.14666413600181
C           -4.45848881938604       -6.78701623799036       -5.40099891984362
C           -4.72830438583133       -7.99232513263762       -6.03275112539264
C           -3.71460449693540       -8.92762902525004       -6.13400947600064
C           -2.44335151125753       -8.66378109780578       -5.63009279543247
C           -2.15101145437781       -7.46918656801622       -4.99772470444362
C           -3.17229019289519       -6.53763080425872       -4.86809413307974
C           -1.67020502762708       -3.36533874562919       -4.05354900318776
C           -0.59635308288888       -2.76286367528475       -3.43737285602180
C            1.26757272699371       -1.40527087000376       -1.54823301273621
C            2.30017976222880       -0.79690505325831       -0.88392293092928
C            4.45823778386165        0.32552043204185        0.99331159501463
C            3.34440756897215        0.99899149602963        1.56667358478563
C            2.14284595220442        0.31748557013823        1.86920705304752
C            1.06302432275611        0.98195880093873        2.38908412326069
C            1.10615218754257        2.36285405115083        2.63409105467141
C           -0.06324746359721        3.07257367741756        3.13512461337589
C           -0.97328440013560        2.45317474762555        4.00049033978206
C           -2.09237222002268        3.11632482380733        4.45233427138247
C           -2.34811322602313        4.42654920122461        4.04405081063121
N           -3.49493799815157        5.09172232993867        4.48106080930572
C           -3.54317301591864        6.37456949427294        4.99419419560102
C           -2.50775583960725        7.26009999357233        5.26149297993452
C           -2.83254472679077        8.48481024100949        5.81556477679707
C           -4.15114630836531        8.82311709450660        6.10961970074212
C           -5.18350733667893        7.93399545324456        5.87228132442066
C           -4.88157555955818        6.69968941305407        5.31546521883692
C           -5.67594832544191        5.55115104914115        4.96821471135957
C           -7.03513256014512        5.27935093782538        5.02843573168790
C           -7.48505857093947        4.05178321715416        4.57756031938137
C           -6.59968210429309        3.11253798930426        4.05470258677946
C           -5.24137823829926        3.36229444328489        3.98279187297985
C           -4.78001740808817        4.58100358674660        4.46201697393412
C           -1.44479890924236        5.05868665814174        3.18792890106078
C           -0.32180088848446        4.39345831626074        2.74874129429304
C            2.31326366991294        3.03423761160241        2.38095340028800
C            3.40693817373775        2.37323838539450        1.88356246268807
C            5.83769037792474        0.70161994042350        1.24161789377701
O            6.30695312095768        1.69982923212859        1.78474432947585
H            9.09294345539750        4.42927115246009       -3.59998614836889
H            9.20439470989380        2.98845190166019       -4.61461894535859
H           10.49718037834961        3.36717753557194       -3.47504950590916
H            8.91993799532892        3.02100827920327       -1.57354024832646
H            7.63109663017580        2.62437473824964       -2.70943877670328
H           10.22837976501489        1.06516592829003       -2.34564604537198
H            9.00167895279154        0.71156189427917       -3.56297335518776
H            7.32751062686952        0.33785761945342       -1.73394252523487
H            8.66559079690557       -0.80574460184164       -1.73544915367007
H            8.36157390367640        1.58821168924178        0.13344842563482
H            9.79311908490261        0.55011162665275        0.05865652231338
H            8.35072068545821       -1.42310994397357        0.65018239212832
H            8.34649946806567       -0.13759118685823        1.89639516280324
H            4.30617904816778       -3.49198452861325       -0.43469763454141
H            2.44954246215702       -4.57745566316632       -1.59297250297204
H            0.31204764370876       -5.27364936573417       -1.36354632188482
H           -1.60292315296299       -6.34331267278538       -2.44718084599047
H           -4.22986171411832       -2.78346839461148       -3.49575369049219
H           -6.56944901374149       -2.19198152450401       -3.98716747617972
H           -8.04003548724577       -3.73943960429993       -5.18923986987701
H           -7.21701183094301       -5.95553530803323       -5.91508834909204
H           -5.70783775435645       -8.19021002421199       -6.44095948870871
H           -3.90456014474246       -9.87331487255967       -6.61968541450922
H           -1.66654523096162       -9.40606248451130       -5.73984129807594
H           -1.15621261291764       -7.26749505947946       -4.63156364860481
H           -2.21312675423836       -2.84567265121018       -4.82870333398415
H           -0.30372544641378       -1.77022870019284       -3.74310671003193
H            0.42475461717301       -0.80978458238152       -1.86562513876016
H            2.28221506114966        0.27007299340198       -0.72482322090917
H            2.09097535079984       -0.74775246334136        1.70592091781652
H            0.15444392601520        0.43350412221641        2.58756635435293
H           -0.77753055123269        1.45177717972144        4.35192056061636
H           -2.76469790083640        2.63562705235617        5.14699956237337
H           -1.47997734517602        7.00075971521319        5.05942120291013
H           -2.04490042413351        9.19221037560167        6.02918650004719
H           -4.36496586927594        9.79030775821842        6.53980837642784
H           -6.20282542035721        8.18956585606123        6.11917205730672
H           -7.72439721538515        6.01459793640607        5.41514554005198
H           -8.53883671235730        3.81917766052131        4.61909086210877
H           -6.98228334397458        2.16983945197226        3.69234583588877
H           -4.56858506738350        2.63558524086892        3.55452097219793
H           -1.65003225085019        6.06159912728329        2.84494287411600
H            0.34575157851469        4.88588849078095        2.05841592131569
H            2.39339882653491        4.08752922750378        2.60569419107275
H            4.33127810228075        2.90085446883011        1.70821735651021
