  108
       -164.11471744
 C         -1.1428855639        5.3442433734        2.9322711219
 C         -0.5790707324        6.7258239778        2.6216095319
 C         -1.6174841624        7.5976817182        1.9206464841
 C         -1.0964564886        8.9771156988        1.5177976974
 C          0.0827236304        8.9741583533        0.5441015202
 C         -0.2065863558        8.3105288931       -0.8053376902
 N         -0.1288557541        6.8725706801       -0.7532791897
 C          1.0131669248        6.1620405821       -0.4142680017
 O          2.0932772152        6.6838891414       -0.1674277021
 C          0.6478447812        4.7527550714       -0.4961734862
 C          1.5836115236        3.6912488512       -0.5233408532
 C          2.8554300454        3.8221768177        0.0779663111
 C          3.7272631240        2.7665308815        0.1188518641
 C          3.4111519839        1.5330910575       -0.4749256169
 C          4.3274483784        0.4042953001       -0.4079141661
 C          4.4140488560       -0.5230237144       -1.4528714994
 C          5.2583259351       -1.6075546299       -1.3760005798
 C          6.0441357642       -1.8096462201       -0.2407362199
 N          6.8794156579       -2.9234983074       -0.1511848806
 C          8.2089895769       -2.9151393777        0.2288330229
 C          9.0326352949       -1.8426383399        0.5404304948
 C         10.3503734301       -2.1130908328        0.8595363566
 C         10.8458852305       -3.4143871749        0.8598178047
 C         10.0375793364       -4.4833714529        0.5221654675
 C          8.7110810815       -4.2362869584        0.1992720085
 C          7.6210474832       -5.0796437333       -0.2121622316
 C          7.4928251022       -6.4484837125       -0.3989191600
 C          6.2634428636       -6.9516420148       -0.7803731575
 C          5.1683284783       -6.1100210788       -0.9564791200
 C          5.2722563088       -4.7433119590       -0.7757647398
 C          6.5116679376       -4.2291207722       -0.4218440970
 C          5.9762395158       -0.8869682382        0.8036679220
 C          5.1370849166        0.2011531490        0.7157798035
 C          2.1820727701        1.4255105284       -1.1436560795
 C          1.2926561183        2.4661178677       -1.1704705869
 C         -0.7540219771        4.6887705512       -0.7749705577
 C         -1.6285149475        3.5944930650       -0.5696461210
 C         -1.2621233239        2.5002807359        0.2513660460
 C         -2.0855829014        1.4154866617        0.3882405837
 C         -3.3326114252        1.3603013105       -0.2539406446
 C         -4.1787091462        0.1822071663       -0.1363008526
 C         -3.6120930672       -1.0953004710       -0.0562479977
 C         -4.3995875507       -2.2202416626        0.0374207827
 C         -5.7899648949       -2.1056668871        0.0700447743
 N         -6.5880837319       -3.2452856048        0.1706988644
 C         -6.4009993656       -4.2862598598        1.0621705947
 C         -5.4700935910       -4.4209492783        2.0826263929
 C         -5.5237660719       -5.5639286653        2.8586007428
 C         -6.4845363933       -6.5473687422        2.6388349440
 C         -7.4331034994       -6.4045434411        1.6439691901
 C         -7.3976220066       -5.2663035607        0.8514837948
 C         -8.2195183983       -4.7886971207       -0.2278059133
 C         -9.3205730442       -5.3127360148       -0.8895866684
 C         -9.8716850948       -4.5901405337       -1.9307252966
 C         -9.3258304801       -3.3710932280       -2.3239350793
 C         -8.2278836854       -2.8304740554       -1.6807071383
 C         -7.6883171787       -3.5372790308       -0.6152896998
 C         -6.3673447189       -0.8372047824       -0.0006598448
 C         -5.5739201685        0.2832077575       -0.1089675813
 C         -3.7336199948        2.4788633737       -1.0027071250
 C         -2.9153630542        3.5674356529       -1.1521992411
 C         -1.2031671406        6.0455841958       -1.0551551003
 O         -2.2875897879        6.4628386606       -1.4417532503
 H         -0.3917870397        4.7208989712        3.4132324832
 H         -1.4613586286        4.8550284536        2.0156982922
 H         -2.0023067564        5.4185987929        3.5959380794
 H         -0.2603341246        7.2110554984        3.5473955946
 H          0.2964286719        6.6087520392        1.9878715685
 H         -2.4680327185        7.7388422198        2.5933243265
 H         -1.9885267223        7.0799947682        1.0405258137
 H         -1.9209226498        9.5333113617        1.0652153217
 H         -0.7870640433        9.5171094305        2.4163877406
 H          0.9421057116        8.4801454028        0.9904021537
 H          0.3618008288       10.0115931974        0.3496011562
 H         -1.2131794377        8.5513634625       -1.1521283519
 H          0.5250496152        8.6670565779       -1.5382628367
 H          3.1179904599        4.7695009279        0.5187037647
 H          4.6895950017        2.8940413032        0.5919333831
 H          3.8378731206       -0.3674230591       -2.3524310603
 H          5.3373776470       -2.2949991342       -2.2051128115
 H          8.6642806376       -0.8279547904        0.5214417501
 H         11.0100524244       -1.2956929075        1.1093193836
 H         11.8802524321       -3.5850438940        1.1171402677
 H         10.4267986303       -5.4898894551        0.5030749930
 H          8.3365615683       -7.1031152186       -0.2427232718
 H          6.1429256978       -8.0133389389       -0.9337688335
 H          4.2150059384       -6.5332855123       -1.2355524530
 H          4.4112798706       -4.1022769924       -0.8926575606
 H          6.5618733793       -1.0508520517        1.6960325441
 H          5.0706972834        0.8842596564        1.5490586866
 H          1.9193546024        0.4955005304       -1.6260475811
 H          0.3633109433        2.3655320373       -1.7063558026
 H         -0.3321726655        2.5418825715        0.7937069811
 H         -1.7873071885        0.6035950838        1.0352537379
 H         -2.5394663986       -1.2048839320       -0.1126786156
 H         -3.9470239986       -3.2005522909        0.0547056105
 H         -4.7352088609       -3.6543140016        2.2773886378
 H         -4.8068962755       -5.6930999341        3.6556149129
 H         -6.4916237960       -7.4272768634        3.2640175009
 H         -8.1906902856       -7.1569709245        1.4866864664
 H         -9.7307031440       -6.2673665577       -0.5974227941
 H        -10.7305768960       -4.9781578800       -2.4569956783
 H         -9.7655597402       -2.8373006202       -3.1530378138
 H         -7.7991030107       -1.8959534941       -2.0097778150
 H         -7.4409397541       -0.7384597062        0.0590185036
 H         -6.0370747315        1.2579917419       -0.1333511384
 H         -4.6903854523        2.4650099468       -1.5028519925
 H         -3.2286265717        4.4144169350       -1.7395499767
