  75
       -135.71567875
 C         -3.6750784882        5.9076305100        0.7643019772
 C         -4.2335731538        5.0297960030       -0.3660420600
 C         -5.7533373373        4.9449063667       -0.2014647592
 C         -3.9301202796        5.6775288216       -1.7259052315
 C         -3.5571506946        3.6759023241       -0.3070515927
 C         -2.1656660799        3.5901225743       -0.4280469014
 C         -1.5193538727        2.3843717685       -0.3556214712
 C         -2.2329584164        1.1925969240       -0.1385166958
 C         -3.6365226173        1.2464783549       -0.0849985688
 C         -4.2566710438        2.4839937862       -0.1607175166
 C         -4.4787159565       -0.0042042677        0.0123803522
 C         -5.3771519237       -0.0822393099       -1.2381070097
 C         -5.3420392600        0.0725213073        1.2875909194
 C         -3.6323343941       -1.2536614352        0.0878604041
 C         -4.2493281694       -2.4921466875        0.1742966869
 C         -3.5456424925       -3.6833600270        0.3050692918
 C         -4.2191430934       -5.0380866212        0.3779409698
 C         -5.7427269606       -4.9541276734        0.2530440053
 C         -3.8803262235       -5.6886403774        1.7281382269
 C         -3.6888410218       -5.9128549897       -0.7682115449
 C         -2.1521413076       -3.5961280651        0.3968201650
 C         -1.5089536969       -2.3891938126        0.3153507517
 C         -2.2281241827       -1.1977464229        0.1160873222
 N         -1.5602541133       -0.0013934938       -0.0141660116
 C         -0.1560540380        0.0027937686       -0.0144369755
 C          0.5920614434       -0.6483781103       -1.0310786800
 F         -0.0986588485       -1.2052845579       -2.0484967969
 C          1.9556562765       -0.6383647294       -1.0351747164
 F          2.6022667110       -1.1553563107       -2.0918813058
 C          2.7188365942        0.0070150112       -0.0072505317
 C          4.1449341719        0.0050131463       -0.0015029668
 C          4.9039966428        1.1560887256        0.3439367632
 F          4.2608635235        2.3140350137        0.5678086252
 C          6.2803965528        1.1567802267        0.3504844682
 F          6.9530898421        2.2769144100        0.6514457072
 C          6.9906045450       -0.0009111853        0.0123547740
 F          8.3320336976       -0.0036427856        0.0194299185
 C          6.2789568646       -1.1553601680       -0.3330737884
 F          6.9496026012       -2.2786165763       -0.6274815559
 C          4.9025340851       -1.1490960911       -0.3402078931
 F          4.2569370366       -2.3042934629       -0.5706177536
 C          1.9489253844        0.6527395487        1.0152721953
 F          2.5885742546        1.1735029202        2.0742741464
 C          0.5854060745        0.6588549746        1.0042539423
 F         -0.1120020513        1.2153338046        2.0173430236
 H         -4.1551371874        6.8830940655        0.7461648891
 H         -2.6038738436        6.0544324887        0.6637509913
 H         -3.8668799411        5.4459841421        1.7304642570
 H         -6.2060362760        4.3697661141       -1.0061226757
 H         -6.0207976845        4.5013788442        0.7550739089
 H         -6.1744006930        5.9471409629       -0.2332282844
 H         -4.2943308438        5.0475493910       -2.5348628555
 H         -4.4236618431        6.6440754682       -1.7923241668
 H         -2.8640629672        5.8307088685       -1.8653423774
 H         -1.5766818112        4.4787770325       -0.5868969327
 H         -0.4487279018        2.3519328144       -0.4766605964
 H         -5.3310714180        2.5149187582       -0.1056452408
 H         -4.7616157785       -0.1527186493       -2.1324440118
 H         -6.0234030907       -0.9536876566       -1.1953556496
 H         -6.0034407125        0.8009517840       -1.3198799339
 H         -5.9904928305        0.9430290186        1.2623991018
 H         -5.9641291978       -0.8118638502        1.3871351221
 H         -4.7018652057        0.1445729050        2.1643543388
 H         -5.3245858958       -2.5241177385        0.1417011916
 H         -6.1747210891       -4.3816300565        1.0710348882
 H         -6.1617481956       -5.9568933150        0.2926584284
 H         -6.0357692174       -4.5081592428       -0.6948345457
 H         -4.3736716549       -6.6544652763        1.8061093622
 H         -2.8110772982       -5.8438723372        1.8393153607
 H         -4.2221522641       -5.0590894276        2.5473308287
 H         -3.9093999059       -5.4512105419       -1.7283969308
 H         -4.1642581903       -6.8903020938       -0.7373746308
 H         -2.6145487190       -6.0553631408       -0.6976145798
 H         -1.5589177309       -4.4843673853        0.5416719965
 H         -0.4363404348       -2.3564461511        0.4161421565
