75
 energy: -135.793091741740 gnorm: 0.000036022835 xtb: 6.7.1 (edcfbbe)
C           -1.90373576007288        5.84717227481358       -1.25664692919585
C           -2.24227677265104        5.09515392417509        0.03819951756728
C           -1.70373290965193        5.87248679816396        1.24741004519269
C           -3.76635826385479        5.01708874075228        0.16159267779018
C           -1.58407116831060        3.72620685761533        0.00230423934691
C           -0.20014842977547        3.62518887511790       -0.09615234098430
C            0.42499420863492        2.39901888318578       -0.10771900415492
C           -0.30464719076929        1.21438514810171       -0.00209329056721
C           -1.69550108100760        1.28604151342954        0.02804459816849
C           -2.29745434653507        2.53927487481846        0.04048335358584
C           -2.57628742143243        0.05303208746402        0.00017859906713
C           -3.45233984430877        0.11067695887531       -1.26454268109231
C           -3.45361243884683        0.04001923285477        1.26528630838010
C           -1.76071442428770       -1.22389033652291       -0.02798766828903
C           -2.42020180597288       -2.44395872594790       -0.04064837989307
C           -1.76864805604333       -3.66998531440675       -0.00174835133123
C           -2.57904068586213       -4.95465778994009       -0.04344000146244
C           -1.69505542892832       -6.20382862189133       -0.00538638274414
C           -3.39740310505933       -4.98737264733383       -1.34191518497222
C           -3.52134664045430       -4.99627835756095        1.16791552353331
C           -0.38496370296204       -3.64239090353664        0.09749527105541
C            0.29959988021739       -2.44461795011447        0.10931902334686
C           -0.36611303805017       -1.22522793514527        0.00341182772884
N            0.35228589622176       -0.02279679619349        0.00090571185230
C            1.74237450095685       -0.05798890732779        0.00208852935729
C            2.46257043481466       -0.66053664223708       -1.04060824375471
F            1.79453640729717       -1.18077394502974       -2.07624102053780
C            3.84656170922873       -0.70658164617924       -1.03150577330678
F            4.49574874743747       -1.26051397052751       -2.06076463828120
C            4.58256084924671       -0.12973410781692        0.00448047611594
C            6.05594670766005       -0.16675538849818        0.00561855248336
C            6.80246141684067        1.00919956460574        0.06612120235234
F            6.17262568108345        2.18374047672197        0.09044192498770
C            8.19259628094842        0.98365252710506        0.06813619839525
F            8.88630758248911        2.11967195578522        0.11897923381223
C            8.86012722986982       -0.23703963690964        0.00771154000931
F           10.19037164890575       -0.27038504498210        0.00869567387421
C            8.13235964769704       -1.42275241206522       -0.05377816459166
F            8.76838759217061       -2.59205151670948       -0.10372366852399
C            6.74267333387169       -1.37865269913106       -0.05384306527880
F            6.05485275107404       -2.52012236275964       -0.07926585843638
C            3.87489301283430        0.48349958041897        1.03930210605378
F            4.54951113070502        1.00406071380204        2.06962969922362
C            2.49033031510964        0.50733653335680        1.04610971174938
F            1.84761326225419        1.06067984861543        2.08060034387070
H           -2.25812704330904        5.28825852304724       -2.12035269518012
H           -0.83230227271561        5.99240338010895       -1.36129195570581
H           -2.38139957971191        6.82455493747979       -1.25782098567946
H           -2.17067972127913        6.85363870593502        1.30060068171309
H           -1.92270719701563        5.33483872175390        2.16753363198964
H           -0.62831507024981        6.01057873109691        1.18238807813589
H           -4.05924661436604        4.50036374166586        1.07274713394094
H           -4.17768438331718        6.02362234938314        0.20059345761557
H           -4.20457181514558        4.51104554102181       -0.69574299542495
H            0.41233968002679        4.50986143420104       -0.17148587595834
H            1.49880043722014        2.37234700408078       -0.21515908058298
H           -3.37235852833486        2.57690873389765        0.07813028682845
H           -4.06725521107927        1.00598853047277       -1.27332811154124
H           -2.82056893383703        0.11848711927919       -2.15054204895586
H           -4.11013471491815       -0.75188692230263       -1.32100083752515
H           -4.11154955442634       -0.82416383639404        1.27541280612294
H           -2.82260641229050        0.00122891248678        2.15101462378110
H           -4.06831649934603        0.93384315290313        1.32097958695379
H           -3.49765637711223       -2.43576288058553       -0.07886479095995
H           -1.01157091380640       -6.22388848936003       -0.85086631025258
H           -2.32048154830619       -7.09268547887773       -0.05717294194671
H           -1.12268089651050       -6.25051750792071        0.91807809124922
H           -3.96690053769737       -5.91228115227248       -1.40245843199460
H           -4.09479135373483       -4.15592010949303       -1.39418741383764
H           -2.73582873000860       -4.93158620938858       -2.20366592401980
H           -2.94917004310983       -4.93937831686002        2.09153300566778
H           -4.08815569824347       -5.92478137155339        1.16932310190735
H           -4.22589013831456       -4.16930458416991        1.15264656510334
H            0.18779927978988       -4.55116226658138        0.17338697587128
H            1.37337667843263       -2.47334010408896        0.21711913115851
