75
 energy: -135.718517454515 gnorm: 0.000073534819 xtb: 6.7.1 (edcfbbe)
C           -5.06391026657202        5.13820384971375        1.08026952661338
C           -4.28344918682197        5.00232310973541       -0.23619070800881
C           -5.25834876057937        5.01045002535590       -1.42354694285318
C           -3.35352847373969        6.21063203909839       -0.36885110782606
C           -3.52934290499083        3.68790411176438       -0.22194723703891
C           -2.14281149353789        3.60239223258130       -0.35280013774824
C           -1.50273061022488        2.38834997338053       -0.30623709466971
C           -2.21691268978716        1.19607181410162       -0.10617918198818
C           -3.62142637546748        1.25145870801230       -0.04944851018468
C           -4.23239042588022        2.49122445851820       -0.09780100523353
C           -4.46744022939500        0.00092539790787        0.01634325377011
C           -5.35681681986166       -0.04653634169505       -1.24167128010854
C           -5.33738167065940        0.05022902907632        1.28783050549072
C           -3.62307330182335       -1.25136050343435        0.06960396399367
C           -4.23605523189895       -2.48990989515544        0.12360179845264
C           -3.53413388581854       -3.68828400744410        0.23715369505742
C           -4.29087923291158       -5.00109603244907        0.25870854174261
C           -5.24747910978700       -5.01031425693447        1.46085815351436
C           -3.36173605851783       -6.21182262956685        0.37360702333210
C           -5.09175353569093       -5.13165079090996       -1.04596514328187
C           -2.14599423694105       -3.60588990532519        0.35168587712974
C           -1.50396998027502       -2.39304110279396        0.30025239889605
C           -2.21787959903740       -1.19894223185091        0.11058472775984
N           -1.54644905412150       -0.00191163975528       -0.00020101086385
C           -0.14294400932726       -0.00208810565430       -0.00350440370768
C            0.60154289129943       -0.65369807772671       -1.02523035473297
F           -0.09403200859065       -1.20531309518700       -2.04225396225666
C            1.96403501687614       -0.64479533902125       -1.03508040300296
F            2.60735015170673       -1.16213007935974       -2.09378459768601
C            2.73260969528086       -0.00057416276852       -0.00933664179943
C            4.15970088188081        0.00009897991674       -0.01209912675674
C            4.91655348568543        1.15390287273810        0.32365751775071
F            4.27183946103383        2.31011693205339        0.54943664935365
C            6.29358453810358        1.15833865290903        0.32107190349023
F            6.96490760300410        2.28136402658264        0.61332725842760
C            7.00393147156014        0.00139326862514       -0.01695723857718
F            8.34503971886871        0.00197154170971       -0.01916635580488
C            6.29346770775507       -1.15616358743615       -0.35266331961733
F            6.96481010152323       -2.27857274118643       -0.64723782122041
C            4.91642969528127       -1.15297140762586       -0.35059522521098
F            4.27198833544644       -2.30972058887845       -0.57435411195052
C            1.96760345932976        0.64305683296929        1.01940030225307
F            2.61465154955165        1.16113577271148        2.07545783246940
C            0.60511579206489        0.65072742451372        1.01493339832855
F           -0.08697479993998        1.20209956973425        2.03446501416987
H           -4.38185450090618        5.10234553197399        1.92672162571513
H           -5.79582740958866        4.34385973575340        1.19719331553763
H           -5.59009795953941        6.08945730711694        1.10126149562752
H           -4.71663839159428        4.87410362197897       -2.35696140768383
H           -5.99993525637982        4.22084591743309       -1.33984819387801
H           -5.78155737828187        5.96265420785570       -1.46475674553582
H           -2.80655276120703        6.18447899671360       -1.30823393526508
H           -3.94390932940323        7.12392650366589       -0.35221894453475
H           -2.64725365240780        6.25362823904836        0.45658674068327
H           -1.54649960548734        4.48640388370886       -0.49937398357987
H           -0.43300563313780        2.35520344895693       -0.43551983424920
H           -5.30803638673527        2.53188316276221       -0.03988738508689
H           -4.73540350090149       -0.10449250550011       -2.13277384330838
H           -6.00991936818809       -0.91370957680451       -1.22099150327431
H           -5.97601384280736        0.84270983040803       -1.31184748528328
H           -5.98864121443661        0.91898756685747        1.27713098362910
H           -5.95738376132722       -0.83769153265046        1.36732852019506
H           -4.70229810007866        0.10668252600583        2.16934357459871
H           -5.31242424892385       -2.52817195022918        0.07914727568541
H           -4.69109151032319       -4.87877663339993        2.38629479520402
H           -5.77297402427815       -5.96103618727816        1.50691667421339
H           -5.98768932182291       -4.21805087878048        1.39113825664105
H           -3.95423361259566       -7.12382321583951        0.36201552944258
H           -2.66740278275796       -6.25310467590249       -0.46199608676307
H           -2.80134597325117       -6.19040717839059        1.30516070673476
H           -5.82434579094906       -4.33603536773041       -1.14913098696565
H           -5.61956493170486       -6.08210377204436       -1.06182966257212
H           -4.42279682908687       -5.09407706018429       -1.90273465829248
H           -1.54982599339158       -4.49142906156014        0.48936007599218
H           -0.43278317525558       -2.36254489045852        0.41728208036622
