75
 energy: -135.793127725004 gnorm: 0.000024090408 xtb: 6.7.1 (edcfbbe)
C           -5.09963884634060        5.13021946714428        1.09388574353319
C           -4.30550275254522        5.00091334205423       -0.21358186498676
C           -5.26752250498090        5.00052916793843       -1.41005297656189
C           -3.38852398733074        6.22040637134072       -0.33732451968890
C           -3.53131338523681        3.69358947537724       -0.19403407172019
C           -2.15031960253391        3.62189119245044       -0.30822886935000
C           -1.49877281863401        2.40680739322602       -0.26000044054721
C           -2.19594584949605        1.21431445385478       -0.07730026337421
C           -3.58948995047056        1.25357478722049       -0.03066038518286
C           -4.21543610443921        2.49034450973544       -0.07848602647355
C           -4.43905562350819        0.00002266029514        0.02269596715420
C           -5.33729959275724       -0.03074651256209       -1.22729091617919
C           -5.29400899898763        0.03382335959059        1.30258785925051
C           -3.59207774748794       -1.25636906533036        0.04750759011569
C           -4.22151337648799       -2.49088960908289        0.10629603130603
C           -3.53967910141579       -3.69751261649932        0.19721843115490
C           -4.31870029336295       -5.00165575432908        0.23185667551882
C           -5.24223348950598       -5.00517237018369        1.45828429700489
C           -3.40371016266024       -6.22586400232888        0.31801167203280
C           -5.15460105729522       -5.11883945813462       -1.05047840173988
C           -2.15591704937674       -3.63179144491217        0.27485967632091
C           -1.50088426115485       -2.41891936559261        0.21710041501594
C           -2.19745007674375       -1.22255221051476        0.05959184201038
N           -1.50917002972602       -0.00475183127463       -0.01339530074373
C           -0.11847839229025       -0.00336740172865       -0.01330556753852
C            0.61788961924670       -0.64025503494513       -1.02362911026933
F           -0.03535946497039       -1.23160540965318       -2.03011767123506
C            2.00276650317823       -0.64863922013478       -1.01345466535400
F            2.66695932004784       -1.23893757556590       -2.01246005879343
C            2.72258696483883        0.00160914756993       -0.01022761388735
C            4.19650019944408        0.00377695737628       -0.00764978426005
C            4.91153032474923        1.20065343291958       -0.01104544553838
F            4.25083981407155        2.35763268495741       -0.05096007506169
C            6.30187074946659        1.21205240724020       -0.00687407777916
F            6.96526137071277        2.36708571050262       -0.01763258922247
C            7.00152796830639        0.00798423524385       -0.00003842048956
F            8.33216832513941        0.00999844533151        0.00385680330387
C            6.30545192082682       -1.19817481450387        0.00275975651510
F            6.97219743799745       -2.35123555118603        0.01725703145266
C            4.91507940910419       -1.19093640739121       -0.00064206984221
F            4.25763577849406       -2.34988693976947        0.03566409258307
C            1.99833995282826        0.65003396482422        0.99116127737698
F            2.65834638746777        1.24275222994144        1.99151187274534
C            0.61369988703195        0.63704085915643        0.99805044355468
F           -0.04408786272538        1.22831405371565        2.00156869656092
H           -4.42469513537226        5.10491921594142        1.94665679827576
H           -5.81809070809968        4.32278301437737        1.20479979729485
H           -5.64279025885325        6.07263599862856        1.11058039119189
H           -4.71372113506758        4.87323912938540       -2.33783805148230
H           -5.99545890128750        4.19740716932871       -1.33532653160925
H           -5.80712883154915        5.94395850855805       -1.45650418844496
H           -2.83009393697137        6.19730029156913       -1.27018234665043
H           -3.98856418104482        7.12802807604691       -0.32841108043675
H           -2.69119145319058        6.27024498910337        0.49551982308856
H           -1.55419335713143        4.50863015237765       -0.44236460642185
H           -0.42602128789513        2.39899536320743       -0.38132856611598
H           -5.29207430917059        2.51431894881972       -0.02618576599176
H           -4.72091363046254       -0.05658857318762       -2.12366960949541
H           -5.97601348803032       -0.90932691256484       -1.22556649298277
H           -5.97284698753157        0.84884996229819       -1.27364487702348
H           -5.92918450160271        0.91481490846588        1.32215847564150
H           -5.93036016113488       -0.84383258721316        1.37066063504833
H           -4.64739248508875        0.05777415737592        2.17747287761489
H           -5.29927574914723       -2.51023646879779        0.08409756748779
H           -4.65851935026571       -4.88814733635786        2.36892843764272
H           -5.78565128233076       -5.94586064370595        1.51477631039036
H           -5.96731249549644       -4.19727195992818        1.41271848609410
H           -4.00771494087412       -7.13089362544832        0.32073877187611
H           -2.73260607163454       -6.27202167034723       -0.53632887610073
H           -2.81666659879630       -6.21240878264398        1.23330849663938
H           -5.87348398234695       -4.30838627090992       -1.13277206226135
H           -5.70136006557728       -6.05930075213069       -1.05643087114799
H           -4.50715559702754       -5.08973017306867       -1.92419272564737
H           -1.55996648218602       -4.52161749561156        0.38769131016076
H           -0.42550226641948       -2.41698503840860        0.31121351940300
