144
 energy: -230.288358126275 gnorm: 0.000051798311 xtb: 6.7.1 (edcfbbe)
O            0.22505584452080        6.08052141410927       -1.65691241212282
C            0.25245610447849        5.00900424952587       -0.97984617110386
C            1.54493517085327        4.39211155504147       -0.70805808703556
C            1.82479704444801        3.64456192804207        0.44795782090003
C            3.02469418062488        2.98679269966694        0.57835520188639
C            3.99524556974937        3.08751450699969       -0.41933186913988
N            5.19386133123538        2.36069189671114       -0.29301737492755
C            6.40758098844724        2.95540247265809       -0.02499944908462
C            6.72010123334440        4.30604303387354       -0.04000290072001
C            7.99426638636144        4.67587800828905        0.34306791579270
C            8.91307384051559        3.72187220417014        0.77003962927059
C            8.59777525837064        2.37671871082799        0.80033137804805
C            7.34217393681384        1.96620233574191        0.36279867218835
C            6.64306673693896        0.70957862398569        0.28981230121660
C            6.97831228552433       -0.63226445658623        0.50810579922546
C            5.98063551206762       -1.64200991787677        0.58078566863311
C            6.67198956093551       -2.88077938598663        0.81562131227255
C            6.30148563903862       -4.22304603966105        0.86669067648623
C            7.27342096094522       -5.18483451734355        1.05492198840351
C            8.61816776733077       -4.84521537757208        1.16266802062858
C            9.02317777487070       -3.52796276054289        1.06676668038288
C            8.04784781413493       -2.55830912613829        0.89930213818073
N            8.21316756023928       -1.19897509314669        0.71574120899883
C            9.46053664190292       -0.62408019490458        0.41693878823622
C            9.66496127951056       -0.01717731268869       -0.81847285991446
C           10.89886672273382        0.52663670160431       -1.12116260117080
C           11.93524700807614        0.45830055083958       -0.20452146931557
C           11.73458047884831       -0.15342919933662        1.02177139800620
C           10.50100281364436       -0.69436362002563        1.33741815014912
C            4.64852293085829       -1.27724514459436        0.32698949016408
C            4.32812307879521        0.00740434853621       -0.17349402055897
C            2.95573008013086       -0.05002051412904       -0.59349142055597
C            2.11347094842167        0.78918215476386       -1.32094805253506
C            0.80702280576670        0.40441365839544       -1.53713074914094
C            0.31446978029209       -0.79776000760034       -1.03314952451440
C            1.14277759850505       -1.68054580456530       -0.37004730533799
C            2.47217724317687       -1.32086153258959       -0.19764312544760
N            3.50521182466892       -2.04927820398597        0.35761278580023
C            3.31335614689813       -3.21953293951522        1.10695757854503
C            3.74006498942193       -3.26760535267485        2.43153512133866
C            3.53733997190773       -4.41166882969321        3.17946147483381
C            2.89907743380295       -5.50682253097381        2.62034679455397
C            2.46920232790513       -5.45813659321936        1.30458172379456
C            2.67535949431015       -4.32104076788746        0.54421314981092
C            5.30987347797405        1.01201394392574       -0.09194204942709
C            3.78445675634806        3.94133079724287       -1.50381323044806
C            2.58210436953579        4.59165762539137       -1.63850294330238
C           -0.97208737661483        4.37728555233275       -0.55020303236891
C           -1.06359814765122        3.04766501538130       -0.09456662318393
C           -2.28085541101240        2.48653197276744        0.19880114742366
C           -3.46244962582607        3.21417891108961        0.02682351882931
N           -4.69723470658147        2.60949202257936        0.31290073789357
C           -5.58142538378785        3.08543740774770        1.25818481923567
C           -5.54039189918509        4.29065616234062        1.94290621579968
C           -6.50978399507093        4.52619952987908        2.89783740496257
C           -7.47163603551893        3.56339170710482        3.18537200776781
C           -7.49807687514168        2.34975078002194        2.52472850933799
C           -6.56333181142682        2.10009551072684        1.52498245373469
C           -6.23909715334316        0.97522768193632        0.68515952479497
C           -6.71634912607907       -0.33384543304962        0.54517837731529
C           -5.96199752359024       -1.31662006257296       -0.15322867989270
C           -6.57380347816880       -2.58151050224732        0.14064803781805
C           -6.22958826872651       -3.91334778383890       -0.08016653263544
C           -7.09458861785307       -4.90610863023169        0.33345907483150
C           -8.29773883371178       -4.59984267122719        0.96177086858290
C           -8.63235727051353       -3.29105395521836        1.25545422432405
C           -7.74597395873215       -2.29450266569541        0.88134753555405
N           -7.81750477187802       -0.93387669086044        1.11448985032791
C           -8.98142556342443       -0.28654869202664        1.55816623037607
C           -9.56553133859804        0.69795919618858        0.76567992288806
C          -10.72581062389978        1.32058230654341        1.18479301366833
C          -11.31654202567894        0.95990706189666        2.38490477170335
C          -10.73776509224684       -0.02161592636218        3.17236874902972
C           -9.57163425402790       -0.64528663736417        2.76614212575576
C           -4.91998275672374       -0.87941160069251       -0.98583414972018
C           -4.49800794296448        0.47072617717104       -0.98306240685812
C           -3.51531417337652        0.59893929436607       -2.02144339880927
C           -2.85429239209996        1.66760788985315       -2.62562771345190
C           -1.98933819985655        1.41515029681067       -3.66943268476102
C           -1.78605227201404        0.12226358797865       -4.14983896422267
C           -2.47345883272380       -0.94732963917571       -3.61417946112271
C           -3.33654084864370       -0.69902652125429       -2.55656742148648
N           -4.18481525773584       -1.58027522760753       -1.91600337403873
C           -4.46627068069998       -2.85441685819606       -2.44007762866868
C           -5.73351150328722       -3.13828830628755       -2.93885777274897
C           -5.99625362386662       -4.38333120874636       -3.47828876968836
C           -4.99942097742597       -5.34355384294201       -3.53398493086457
C           -3.73445643771590       -5.05695931319670       -3.04826619181495
C           -3.46299950742920       -3.81551356202697       -2.50162612228940
C           -5.07868591036619        1.34575037825780       -0.04529982422535
C           -3.39301134710032        4.53251039127842       -0.43405256889285
C           -2.17638412438903        5.09992697580049       -0.71261264570801
H            1.10904867356023        3.60726680571368        1.25437308674351
H            3.23027739995662        2.39029684136177        1.45572918372109
H            5.98300458867114        5.04139245302651       -0.32349576790117
H            8.27193814233417        5.71906974171724        0.33655084093818
H            9.89080601126472        4.03992693668285        1.10041973893177
H            9.31579028185094        1.67351101572147        1.18558004014224
H            5.27753553321520       -4.52615145272939        0.73958376933239
H            6.98404185360921       -6.22403646369586        1.10334138817579
H            9.35647290486612       -5.62094346404644        1.29977210298685
H           10.06960141497801       -3.26610375168224        1.10005504490552
H            8.85291693244784        0.02819884585589       -1.52821430121184
H           11.05315019777191        1.00178050983072       -2.07809369520759
H           12.89828591121498        0.88269605946012       -0.44455212580981
H           12.53952173443340       -0.20378656738272        1.73999812038763
H           10.33088854377943       -1.15166780137270        2.30091508845807
H            2.47209955673292        1.71558379586072       -1.73443434917342
H            0.14836320661286        1.04356143247802       -2.10467666508302
H           -0.72453703881549       -1.04676057955127       -1.18885180325496
H            0.76751556827125       -2.62250342239660        0.00033904026448
H            4.23478634568466       -2.40906368975685        2.86010874588647
H            3.87458821373022       -4.44701611340196        4.20436476478718
H            2.74005897604866       -6.39836508002147        3.20772319976105
H            1.97912779243504       -6.31362975353298        0.86365728154437
H            2.37178344910460       -4.28979741534661       -0.49144571036866
H            4.55654330508726        4.05160731233947       -2.25157769668175
H            2.39070022878561        5.23301438955526       -2.48508565653295
H           -0.18035487973881        2.43461045505769       -0.01604629759131
H           -2.33482829293880        1.46593252026439        0.54884863545367
H           -4.76286327596523        5.01276437720511        1.74922558398616
H           -6.50764161556396        5.45885153941779        3.44149513550351
H           -8.20484533981995        3.75966398185239        3.95358528057917
H           -8.22838947523615        1.61261014367411        2.80791652459290
H           -5.29290932622284       -4.17785958444966       -0.54044300622764
H           -6.83333195965654       -5.93989296036473        0.16351379045517
H           -8.96921741543293       -5.39599271047050        1.24629791585365
H           -9.55541100116705       -3.05761472094884        1.76325548083822
H           -9.09903823306188        0.97216068720947       -0.16854999262238
H          -11.17321745064236        2.08690823633337        0.57002578624720
H          -12.22446813128432        1.44584469153371        2.70837209631633
H          -11.19090900149379       -0.29793194916669        4.11288138255973
H           -9.09979702851221       -1.38867816676501        3.39099518179532
H           -3.02598820513997        2.68170946724567       -2.30961826023715
H           -1.46887848462754        2.23965301455767       -4.13342480542101
H           -1.10015633495713       -0.04102729624303       -4.96735172114930
H           -2.35942998943603       -1.94167969113124       -4.01873062020550
H           -6.50277400499438       -2.38217650826887       -2.89581976213229
H           -6.98162315457826       -4.60310378154614       -3.86042563921594
H           -5.20760141063541       -6.31470063610342       -3.95683707492229
H           -2.95616407906858       -5.80454624697887       -3.09018786003005
H           -2.48329739863513       -3.58922989804582       -2.10694233702613
H           -4.30571608402453        5.08609999384688       -0.60228985690293
H           -2.10929930088805        6.11028738033791       -1.08682623732726
