  144
       -230.36423431
 O          0.2358598103        4.0965832897       -4.1654520163
 C          0.0804836894        3.6495389965       -3.0457725300
 C          1.2319909320        3.3960578959       -2.1403649194
 C          1.2212520464        3.7739756783       -0.7996954999
 C          2.2791035954        3.4483064468        0.0263924348
 C          3.3591545298        2.7270641989       -0.4791015835
 N          4.4061963166        2.3216364986        0.3530728261
 C          5.1921220561        3.1745845649        1.1053834291
 C          4.9788248960        4.5057352216        1.4265512614
 C          5.8876706402        5.1239741405        2.2634086516
 C          6.9696889092        4.4225222048        2.7852839298
 C          7.2120055419        3.1111348385        2.4289315859
 C          6.3500009825        2.4835581670        1.5343421357
 C          6.2855229543        1.1751629621        0.9384336683
 C          7.1701496172        0.0949712106        0.7969737708
 C          6.7573970698       -1.1193334337        0.1989409353
 C          7.9262913129       -1.9539984509        0.1160418825
 C          8.2267107047       -3.1735756050       -0.4858317544
 C          9.5142670916       -3.6637953475       -0.4071158656
 C         10.5243096552       -2.9508236564        0.2319613915
 C         10.2714402327       -1.7123095635        0.7864859487
 C          8.9751095125       -1.2250560783        0.7233042190
 N          8.5013515335        0.0054241008        1.1349282697
 C          9.3671273277        1.0667237922        1.4532310552
 C          9.4294059005        2.1855016353        0.6285358096
 C         10.3029040043        3.2134549764        0.9291345499
 C         11.1243907401        3.1278912220        2.0411217736
 C         11.0704139156        2.0096087317        2.8564296836
 C         10.1950297407        0.9782632872        2.5670821732
 C          5.4087498896       -1.2512672787       -0.1694720952
 C          4.5338540370       -0.1388536233       -0.1689701005
 C          3.2475156964       -0.6280550048       -0.5934860511
 C          1.9644612183       -0.0912559418       -0.6787572510
 C          0.9182216500       -0.8960711488       -1.0819532358
 C          1.1128544926       -2.2436724302       -1.3684194862
 C          2.3607073052       -2.8191720545       -1.2411895433
 C          3.4181669224       -2.0066749023       -0.8601994854
 N          4.7268510568       -2.3655443484       -0.6038170984
 C          5.1286335911       -3.7037920628       -0.4624196441
 C          5.6022485109       -4.1604244830        0.7639890812
 C          5.9782146555       -5.4824579750        0.9070070974
 C          5.8727965839       -6.3575624278       -0.1616795914
 C          5.3923748985       -5.9061709179       -1.3797879097
 C          5.0206302473       -4.5828975741       -1.5354049852
 C          5.0292910835        1.0895891106        0.2972788581
 C          3.3999865043        2.4024355326       -1.8345490667
 C          2.3478554082        2.7428126241       -2.6571463992
 C         -1.2580405095        3.2689760903       -2.5357876072
 C         -1.4392572402        2.4457988620       -1.4234496002
 C         -2.7069349766        2.0828232027       -1.0236279743
 C         -3.8243401197        2.5106523758       -1.7428508226
 N         -5.0995068050        2.1294051275       -1.3276801731
 C         -6.1285051043        3.0175041778       -1.0612085789
 C         -6.2266417475        4.3655977654       -1.3679830800
 C         -7.3994237034        5.0214729004       -1.0462277260
 C         -8.4581318369        4.3420517175       -0.4531807846
 C         -8.3444010106        3.0132476415       -0.0974699251
 C         -7.1486499699        2.3464562901       -0.3473188628
 C         -6.6666961850        1.0118820864       -0.1073424686
 C         -7.0838315872       -0.0725393658        0.6793365575
 C         -6.4110454255       -1.3163250418        0.6308367688
 C         -7.0274975737       -2.1557063977        1.6235579948
 C         -6.7492300489       -3.4072511108        2.1675715422
 C         -7.5514414498       -3.8946894055        3.1790817126
 C         -8.6109055327       -3.1492582161        3.6877991310
 C         -8.8749551254       -1.8812366535        3.2104841197
 C         -8.0809578757       -1.3958925126        2.1828616512
 N         -8.1055041850       -0.1441448758        1.5989973175
 C         -8.7969082209        0.9340486316        2.1792758779
 C        -10.1853491506        0.9112726948        2.2545255302
 C        -10.8582446093        1.9610008920        2.8538236905
 C        -10.1542192181        3.0321206799        3.3784841158
 C         -8.7710170555        3.0513851220        3.3088365020
 C         -8.0895709158        2.0046017099        2.7173507305
 C         -5.3633298195       -1.4659864593       -0.2913612094
 C         -4.8328549727       -0.3551544463       -0.9909398710
 C         -3.7856725533       -0.8664028642       -1.8372316696
 C         -2.9821628786       -0.3364469779       -2.8445832249
 C         -2.0972165989       -1.1621219098       -3.5076981965
 C         -2.0200665546       -2.5211984193       -3.2199865619
 C         -2.8425080024       -3.0879519996       -2.2670370694
 C         -3.7136457726       -2.2557500627       -1.5807421544
 N         -4.6695575892       -2.6005464389       -0.6455047075
 C         -5.0726538777       -3.9295707395       -0.4345813579
 C         -6.3725991584       -4.3167794217       -0.7457533454
 C         -6.7626801585       -5.6291499132       -0.5584470543
 C         -5.8607967367       -6.5628097504       -0.0748820209
 C         -4.5641149962       -6.1801686833        0.2256067414
 C         -4.1658178679       -4.8671974234        0.0489542988
 C         -5.4437784587        0.8953679737       -0.8055247238
 C         -3.6492160231        3.3175214612       -2.8677273565
 C         -2.3799845215        3.6902970759       -3.2524988965
 H          0.3799565897        4.3237815144       -0.4029668854
 H          2.2499065540        3.7039994481        1.0747157035
 H          4.1300985195        5.0476193063        1.0389759998
 H          5.7417145434        6.1590366840        2.5340182650
 H          7.6353773696        4.9138030831        3.4792482522
 H          8.0437489548        2.5841197820        2.8647319445
 H          7.4828177319       -3.7245957536       -1.0346644187
 H          9.7461530182       -4.6134303305       -0.8662398291
 H         11.5235196940       -3.3583362837        0.2708891846
 H         11.0630980520       -1.1316205236        1.2353478204
 H          8.7895274383        2.2417739184       -0.2390175631
 H         10.3451324891        4.0827928103        0.2904756015
 H         11.8061143573        3.9322161619        2.2730565650
 H         11.7074185742        1.9421172883        3.7260567757
 H         10.1337722165        0.1112142959        3.2081459425
 H          1.7720174084        0.9320521905       -0.4077663698
 H         -0.0764069594       -0.4824032934       -1.1661697772
 H          0.2696006814       -2.8461936600       -1.6698955703
 H          2.5045153375       -3.8751555012       -1.4126774365
 H          5.6784282654       -3.4723248342        1.5922698130
 H          6.3510836967       -5.8322170929        1.8579070368
 H          6.1663951525       -7.3899560209       -0.0464291490
 H          5.3141819830       -6.5850702126       -2.2162019726
 H          4.6681346768       -4.2188254845       -2.4891123868
 H          4.2526839524        1.8688275477       -2.2256564306
 H          2.3644484101        2.4863282252       -3.7053643409
 H         -0.5874453699        2.0717654726       -0.8775767859
 H         -2.8453027107        1.4492883115       -0.1606558935
 H         -5.4164124752        4.8960246367       -1.8431219448
 H         -7.5020752006        6.0702658571       -1.2813890505
 H         -9.3836393043        4.8641126086       -0.2614316463
 H         -9.1850662725        2.5042966170        0.3421750007
 H         -5.9057162436       -3.9867422279        1.8346666517
 H         -7.3418127467       -4.8688426308        3.5954772521
 H         -9.2169544907       -3.5562592055        4.4834428724
 H         -9.6611767114       -1.2782694109        3.6389719429
 H        -10.7281302393        0.0811008126        1.8269582424
 H        -11.9368920744        1.9445795394        2.9055511415
 H        -10.6837104606        3.8507696405        3.8419484221
 H         -8.2197675128        3.8833649907        3.7205213187
 H         -7.0114386958        2.0093370102        2.6628642796
 H         -3.0576569938        0.6955191359       -3.1393632721
 H         -1.4646416681       -0.7471291990       -4.2779990696
 H         -1.3302112582       -3.1438743259       -3.7701232477
 H         -2.8242410578       -4.1508221002       -2.0790161922
 H         -7.0677200870       -3.5832502999       -1.1253372592
 H         -7.7734616271       -5.9253740672       -0.7952345182
 H         -6.1682024033       -7.5875464587        0.0692038739
 H         -3.8602587531       -6.9051138811        0.6071842953
 H         -3.1633071146       -4.5570759989        0.3043677454
 H         -4.5058869728        3.6094101966       -3.4554453173
 H         -2.2268641348        4.3031627851       -4.1284137384
