  99
  -160.565263660000       0.585790554297654      !
 C         -3.8947614984       -4.8682740297       -2.3036432586
 C         -2.7365241199       -5.2997003706       -1.6756396776
 C         -1.8040349634       -4.3818254034       -1.2325263316
 C         -2.0309835326       -3.0190342263       -1.4088595668
 C         -1.0674378656       -2.0371932453       -0.9169378962
 N         -1.3781780458       -0.7505621726       -1.0426973984
 C         -0.4352541741        0.0975183008       -0.6592477889
 N         -0.6958793280        1.4376599798       -0.7923387663
 C          0.2456308781        2.3206780645       -1.3216138217
 C          1.5651456456        2.1037422368       -1.6827895522
 C          2.2778501554        3.1669660750       -2.2063035497
 C          1.6894850433        4.4144732403       -2.3908301511
 C          0.3548343384        4.6145250034       -2.1006385269
 C         -0.3760633330        3.5560204401       -1.5758830586
 C         -1.7610196951        3.4041390986       -1.2299282375
 C         -2.8064670537        4.3139459885       -1.3775241498
 C         -4.0739288190        3.9190450644       -1.0336746090
 C         -4.2556692142        2.6583519008       -0.4695140152
 C         -5.4514452034        2.0625839152        0.0424847156
 C         -6.7723828923        2.4921716532        0.0932054296
 C         -7.7014892203        1.6922403723        0.7233242496
 C         -7.3146255707        0.4976370964        1.3276294346
 C         -6.0073542802        0.0536362638        1.2860378843
 C         -5.0753896473        0.8258714463        0.6031663024
 N         -3.7167873665        0.6288052458        0.4123210692
 C         -3.0473097723       -0.4442075307        1.0168767473
 C         -3.5731209801       -1.7296849902        0.9107208283
 C         -2.9583035467       -2.7881457936        1.5516560383
 C         -1.8084484993       -2.5805035135        2.2931592036
 C         -1.2804229461       -1.3047452174        2.3960803300
 C         -1.9017847895       -0.2352291415        1.7789869600
 C         -3.1969071704        1.7357507987       -0.2451922547
 C         -1.9333024218        2.0895585525       -0.7333139331
 N          0.7756757976       -0.2407714211       -0.2277559393
 C          0.9733663836       -1.5474933711       -0.1002522334
 N          2.2118296784       -1.9878310780        0.2837977066
 C          2.5341809181       -3.3525594511        0.1898664240
 C          1.7666601202       -4.4537187435        0.5181562963
 C          2.3252546333       -5.7077081557        0.3302432676
 C          3.6144851809       -5.8598796567       -0.1669411337
 C          4.3930847117       -4.7582125205       -0.4690906008
 C          3.8521508694       -3.4952359129       -0.2791735241
 C          4.3878771641       -2.1662433468       -0.4380262633
 C          5.6118993144       -1.7348577913       -0.9458237868
 C          5.8697784379       -0.3844030292       -1.0049754791
 C          4.9546395758        0.5041178598       -0.4460271037
 C          5.0204204079        1.9213933834       -0.2446687122
 C          5.9491451900        2.8837618113       -0.6211125953
 C          5.7451792141        4.1884520962       -0.2234982540
 C          4.6475502784        4.5269594155        0.5643312367
 C          3.7149400072        3.5846407776        0.9520793458
 C          3.8872252356        2.2772716626        0.5192233875
 N          3.1174020857        1.1488714841        0.7527576083
 C          2.1804343297        1.0767367123        1.7935778234
 C          1.1789549713        2.0348523667        1.9143042010
 C          0.3675502725        2.0484096633        3.0342869427
 C          0.5400682656        1.1093027530        4.0377931647
 C          1.5118759478        0.1308981596        3.8997974021
 C          2.3294600486        0.1108306620        2.7853573369
 C          3.7386192907        0.0725880656        0.1473723616
 C          3.3984630833       -1.2696813163        0.0174673229
 N          0.0698496167       -2.4774239847       -0.4006606990
 C         -3.1882323822       -2.5900914026       -2.0566431462
 C         -4.1147668342       -3.5135917331       -2.4998047075
 H         -4.6243671753       -5.5883295564       -2.6445765965
 H         -2.5631847451       -6.3562615000       -1.5319613937
 H         -0.8948880817       -4.6997163233       -0.7480745147
 H          2.0211229294        1.1358011870       -1.5661750601
 H          3.3127961600        3.0234075804       -2.4775976000
 H          2.2819537806        5.2253390447       -2.7871750173
 H         -0.1174100952        5.5678711236       -2.2824782463
 H         -2.6091883269        5.2964757738       -1.7756552837
 H         -4.9227844726        4.5705730689       -1.1685239945
 H         -7.0579238640        3.4346764836       -0.3487955253
 H         -8.7358442214        1.9988594015        0.7695178928
 H         -8.0538642135       -0.0951063182        1.8460395147
 H         -5.7288754065       -0.8587279641        1.7896560925
 H         -4.4390287861       -1.9034990973        0.2916619888
 H         -3.3711127376       -3.7814180526        1.4539287732
 H         -1.3209994877       -3.4081065848        2.7862702644
 H         -0.3805039259       -1.1355563592        2.9666698946
 H         -1.4959139901        0.7605409171        1.8804048928
 H          0.7722676351       -4.3362348367        0.9142453337
 H          1.7481162390       -6.5854948362        0.5808088583
 H          4.0156722227       -6.8528616998       -0.3058989590
 H          5.4018432065       -4.8739507089       -0.8350043496
 H          6.3282446325       -2.4570308378       -1.3042486155
 H          6.7845250777       -0.0108837249       -1.4379758971
 H          6.8099599787        2.6099484019       -1.2124043877
 H          6.4483153307        4.9558667079       -0.5108955154
 H          4.5230034202        5.5511852360        0.8833029313
 H          2.8877296461        3.8687172893        1.5820129596
 H          1.0331749112        2.7565074816        1.1262034180
 H         -0.3995320692        2.8043095564        3.1284506677
 H         -0.0871056667        1.1312748451        4.9164372305
 H          1.6472366623       -0.6105174483        4.6745395609
 H          3.1058288803       -0.6347270893        2.6935617257
 H         -3.3408941398       -1.5316534225       -2.1994416385
 H         -5.0137761246       -3.1793753559       -2.9969953084
  99
  -160.564936130000       0.414209445702346      !
 C         -3.9031055392       -4.7927610603       -2.3736013693
 C         -2.7371391880       -5.2354312880       -1.7681637062
 C         -1.8056328723       -4.3254839688       -1.3067454116
 C         -2.0413238420       -2.9596852761       -1.4435245442
 C         -1.0775135693       -1.9866085980       -0.9356660388
 N         -1.3852442143       -0.6982064316       -1.0432089816
 C         -0.4415207260        0.1433403187       -0.6479157096
 N         -0.7168164443        1.4823127953       -0.7586337791
 C          0.2031123463        2.3886813922       -1.2851364971
 C          1.5339992700        2.2082506285       -1.6230663127
 C          2.2226191723        3.2879216291       -2.1453071506
 C          1.5980714535        4.5140809439       -2.3535662252
 C          0.2534352199        4.6762968221       -2.0855750749
 C         -0.4527286607        3.6020560521       -1.5592008957
 C         -1.8372572030        3.4111786776       -1.2297204427
 C         -2.9105041950        4.2836592703       -1.4014987715
 C         -4.1691702690        3.8493785853       -1.0719668306
 C         -4.3175060568        2.5896596360       -0.4958045850
 C         -5.4997978373        1.9574511982        0.0041678672
 C         -6.8364662254        2.3381752888        0.0247863002
 C         -7.7474906907        1.5119932523        0.6475576224
 C         -7.3283119283        0.3409669638        1.2756946468
 C         -6.0047816661       -0.0539613821        1.2653113351
 C         -5.0891350587        0.7424749820        0.5880244977
 N         -3.7213519180        0.5920318607        0.4220189960
 C         -3.0213879302       -0.4505863207        1.0446049895
 C         -3.5033110730       -1.7544240440        0.9507548851
 C         -2.8549404967       -2.7857206592        1.6024858621
 C         -1.7151170632       -2.5323436863        2.3450777840
 C         -1.2307733649       -1.2387110896        2.4360596405
 C         -1.8849130745       -0.1961946903        1.8064689544
 C         -3.2311752054        1.7073325181       -0.2441300391
 C         -1.9742534228        2.0975464665       -0.7210968426
 N          0.7705737142       -0.2004585676       -0.2218909972
 C          0.9612129916       -1.5095918328       -0.1040538183
 N          2.1904288764       -1.9679259516        0.2900355332
 C          2.4798819321       -3.3416281084        0.2161789920
 C          1.6852875810       -4.4187131617        0.5602529926
 C          2.2137767271       -5.6885776155        0.3936615490
 C          3.4999903259       -5.8797369594       -0.0979090262
 C          4.3057482534       -4.8021380712       -0.4150387647
 C          3.7950846377       -3.5235747718       -0.2463364362
 C          4.3639520107       -2.2104805217       -0.4209617028
 C          5.6011160050       -1.8165916879       -0.9273161071
 C          5.8954567458       -0.4741813793       -0.9979489812
 C          5.0021322302        0.4433828494       -0.4506881160
 C          5.1068187861        1.8593884819       -0.2563430599
 C          6.0655050326        2.7928726426       -0.6304988758
 C          5.8981078382        4.1040732008       -0.2371386590
 C          4.8053058694        4.4778402250        0.5416420692
 C          3.8428150031        3.5647137283        0.9265784555
 C          3.9811495194        2.2509211431        0.5012823974
 N          3.1783106948        1.1459694772        0.7372140324
 C          2.2452972924        1.1017101610        1.7841517307
 C          1.2599150569        2.0766515857        1.8994133978
 C          0.4512677856        2.1117354801        3.0208082648
 C          0.6144063771        1.1810029532        4.0334079320
 C          1.5730656791        0.1884450108        3.9031521502
 C          2.3848238512        0.1442042558        2.7852398866
 C          3.7723115842        0.0495433257        0.1402586526
 C          3.3959156577       -1.2837071049        0.0203811341
 N          0.0564345380       -2.4335274950       -0.4197630982
 C         -3.2071403879       -2.5186785402       -2.0675319940
 C         -4.1329348109       -3.4342781790       -2.5281843481
 H         -4.6315199254       -5.5069323459       -2.7291619918
 H         -2.5566285120       -6.2946956295       -1.6571440910
 H         -0.8901718411       -4.6513874929       -0.8395206352
 H          2.0144853327        1.2549743317       -1.4882486906
 H          3.2661559257        3.1740872499       -2.3974588980
 H          2.1706275925        5.3385463482       -2.7512284470
 H         -0.2447423970        5.6126649323       -2.2855186957
 H         -2.7411108783        5.2683307781       -1.8071624909
 H         -5.0373477169        4.4702395871       -1.2274269177
 H         -7.1483683764        3.2630887359       -0.4359682822
 H         -8.7935144434        1.7790735906        0.6681105901
 H         -8.0549194061       -0.2724060136        1.7879838435
 H         -5.7027410819       -0.9477081658        1.7880707629
 H         -4.3606767214       -1.9638049482        0.3310297752
 H         -3.2337641702       -3.7931566983        1.5124406118
 H         -1.2013524434       -3.3376884348        2.8482879851
 H         -0.3380190780       -1.0346577715        3.0059712397
 H         -1.5099953729        0.8128474460        1.8974022399
 H          0.6924229463       -4.2717022153        0.9506206200
 H          1.6150004569       -6.5479599107        0.6570511585
 H          3.8771718697       -6.8842404110       -0.2202338265
 H          5.3122830838       -4.9480513114       -0.7761923832
 H          6.2999097438       -2.5611825435       -1.2744162565
 H          6.8219128829       -0.1294098043       -1.4298777366
 H          6.9213042681        2.4919285910       -1.2158243229
 H          6.6255638804        4.8493325619       -0.5224311990
 H          4.7087216540        5.5066928843        0.8553492143
 H          3.0190226934        3.8744718432        1.5489014050
 H          1.1240212293        2.7945658157        1.1063393841
 H         -0.3052925391        2.8787554620        3.1091583294
 H         -0.0097114498        1.2202819054        4.9136257623
 H          1.7021261930       -0.5456687461        4.6858781534
 H          3.1500846979       -0.6133925311        2.6980072472
 H         -3.3669568408       -1.4573973743       -2.1782062684
 H         -5.0383641973       -3.0909460415       -3.0070974739
