  76
       -120.20279812
 C          0.9613864050       -6.5046661707       -0.1545886117
 C          2.1989073569       -5.9121786917       -0.3368250838
 C          2.3117836330       -4.5267895213       -0.3521584014
 C          1.1962837741       -3.7233328700       -0.1684580452
 C          1.1732538084       -2.2760605034       -0.1429810465
 C          2.3485425783       -1.4416327002       -0.0560130943
 C          2.3056695559       -0.1495568621       -0.6100417405
 C          3.3931537457        0.6869573786       -0.5493987345
 C          4.5631380764        0.2747678780        0.0919460701
 N          5.6773751206        1.1217667195        0.1521068885
 C          6.9681094117        0.7800795063       -0.1908600536
 C          7.4598759143       -0.4146572451       -0.6992360009
 C          8.8096581402       -0.4862924644       -0.9861491839
 C          9.6549846102        0.6022862876       -0.7826759994
 C          9.1673917355        1.8013752859       -0.2982692850
 C          7.8152897861        1.8978501631       -0.0025428518
 C          6.9811267623        2.9620136510        0.4842605749
 C          7.2279734980        4.2741162511        0.8617167940
 C          6.1727753176        5.0408153390        1.3188053469
 C          4.8886644703        4.5091695815        1.4157695955
 C          4.6177658194        3.2055160730        1.0461732133
 C          5.6689847372        2.4376904630        0.5629536591
 C          4.6037156895       -0.9860355137        0.6878752563
 C          3.5170969325       -1.8277281012        0.6179311115
 N          0.0074383450       -1.6434194658       -0.1791674022
 C         -1.1545728909       -2.2548113589       -0.1061476237
 C         -2.3782089695       -1.4879805067       -0.1083669853
 C         -2.3458901440       -0.0900178513       -0.1500401501
 C         -3.5134016115        0.6375502509       -0.1409491020
 C         -4.7466892551       -0.0158424453       -0.0964384895
 N         -5.9356252541        0.7233431239       -0.0844344692
 C         -6.9761804749        0.5606661176        0.8073970718
 C         -7.0833138196       -0.2979798518        1.8929560338
 C         -8.2387747616       -0.2400232739        2.6489585777
 C         -9.2629352995        0.6539835415        2.3450320783
 C         -9.1508827324        1.5290304041        1.2813013335
 C         -8.0000893743        1.4893362208        0.5070637541
 C         -7.5452207412        2.2435613211       -0.6287560231
 C         -8.1030363786        3.2676426305       -1.3806028394
 C         -7.3867929563        3.7677952232       -2.4514534585
 C         -6.1379787146        3.2479963367       -2.7842649821
 C         -5.5620452178        2.2279348490       -2.0509164816
 C         -6.2654298767        1.7388933438       -0.9585146660
 C         -4.7867065083       -1.4105219535       -0.0594926199
 C         -3.6173094562       -2.1356961071       -0.0612168532
 N         -1.2057915346       -3.5909155005       -0.0359894710
 C         -0.0954890514       -4.3318399245       -0.0693678641
 C         -0.1778496401       -5.7302624231       -0.0384515026
 H          0.8772190054       -7.5810102766       -0.1260753207
 H          3.0792595272       -6.5202784998       -0.4788630493
 H          3.2711105655       -4.0752006809       -0.5517143061
 H          1.4044098617        0.1628165336       -1.1146468403
 H          3.3604099261        1.6594932430       -1.0180417644
 H          6.8079402415       -1.2565789985       -0.8755643422
 H          9.2177832030       -1.4052005716       -1.3799725309
 H         10.7045311091        0.5060583296       -1.0169717577
 H          9.8207298842        2.6487289519       -0.1556711522
 H          8.2256546297        4.6821895303        0.8028952286
 H          6.3436649061        6.0645683856        1.6160581096
 H          4.0879443367        5.1282301479        1.7921214495
 H          3.6241010777        2.7951509122        1.1421115906
 H          5.4871423683       -1.2847609824        1.2330698914
 H          3.5487350697       -2.7709044104        1.1410177595
 H         -1.3868847018        0.4047936940       -0.1726502677
 H         -3.4868220301        1.7172626149       -0.1449084807
 H         -6.2866750152       -0.9803047012        2.1473291232
 H         -8.3478969282       -0.8996200079        3.4969266629
 H        -10.1513349462        0.6669758041        2.9584598209
 H         -9.9378426063        2.2328585267        1.0564290574
 H         -9.0780328935        3.6594726368       -1.1334526903
 H         -7.8020255552        4.5662488230       -3.0478948669
 H         -5.6096355454        3.6482050590       -3.6367833647
 H         -4.6022529449        1.8186088472       -2.3270318861
 H         -5.7430309622       -1.9121274386       -0.0499792185
 H         -3.6332637674       -3.2145382376       -0.0376542591
 H         -1.1503877600       -6.1793042737        0.0844008246
