  94
  -153.293256578000       0.428031355329878      !
 N          0.0471368247       -3.3175039838       -2.0717595333
 C          0.0241361983       -2.3954859189       -1.3905310233
 C          0.0108621626       -1.2161695534       -0.6101193401
 C         -1.2139006119       -0.6031461162       -0.3085886841
 N         -2.4121769424       -1.1840433175       -0.7087389498
 C         -3.4184393144       -0.5117379127       -1.3831101422
 C         -3.3701090218        0.7142574385       -2.0253002264
 C         -4.5236107597        1.1634867401       -2.6399092276
 C         -5.6863509282        0.3987410709       -2.6422249864
 C         -5.7173096391       -0.8526083190       -2.0568876621
 C         -4.5725992983       -1.3198980000       -1.4272075609
 C         -4.2380410607       -2.5465163346       -0.7562226667
 C         -4.9544333411       -3.6999892863       -0.4719559565
 C         -4.3281232035       -4.7125071770        0.2281912124
 C         -3.0094099062       -4.5791711574        0.6522859271
 C         -2.2778196617       -3.4378630210        0.3822875778
 C         -2.8958278036       -2.4283281211       -0.3362863757
 C         -1.2137403478        0.6295142920        0.3719020958
 N         -2.4156367318        1.2082183514        0.7654417244
 C         -2.9121230980        2.4405735143        0.3669354874
 C         -2.2859684439        3.4650607518       -0.3225913642
 C         -3.0325390823        4.5870217764       -0.6311711803
 C         -4.3738763439        4.6863467434       -0.2745410743
 C         -5.0066283708        3.6601551823        0.3995498284
 C         -4.2747636011        2.5275832882        0.7247477511
 C         -4.6098208278        1.2967768673        1.3879757211
 C         -5.7695554785        0.8056625012        1.9701617810
 C         -5.7331095523       -0.4395839232        2.5681750347
 C         -4.5530029254       -1.1752789462        2.6231730405
 C         -3.3859317162       -0.7033040000        2.0528667015
 C         -3.4361212724        0.5167281338        1.3995010695
 C          0.0126696031        1.2409858523        0.6726445908
 C          0.0289600553        2.4170538600        1.4574538220
 N          0.0535984933        3.3357683763        2.1431892346
 C          1.2399948377        0.6424876763        0.3379967879
 N          2.4332112328        1.2965052161        0.6303387344
 C          3.5283483086        0.7336619517        1.2633821188
 C          3.5987242529       -0.4225452624        2.0223518096
 C          4.8282375680       -0.7692920918        2.5497809228
 C          5.9511020279        0.0295616702        2.3539945244
 C          5.8674689892        1.2173112169        1.6530033444
 C          4.6445044125        1.5819389311        1.1091204644
 C          4.1934207013        2.7196828519        0.3549047769
 C          4.8247141199        3.8600792897       -0.1205968904
 C          4.0882563470        4.7666583767       -0.8582181962
 C          2.7431607967        4.5404179607       -1.1345330859
 C          2.0951809659        3.4092352789       -0.6744531730
 C          2.8244970991        2.5096687422        0.0845742086
 C          1.2386214649       -0.6159602687       -0.2835991752
 N          2.4274240256       -1.2716835163       -0.5898138476
 C          3.5068925972       -0.7270760920       -1.2629509295
 C          3.5687066085        0.4260166090       -2.0273847653
 C          4.7808346285        0.7447228349       -2.6099145391
 C          5.8945409653       -0.0766334214       -2.4602326783
 C          5.8187259637       -1.2570121774       -1.7461462815
 C          4.6137223096       -1.5939320111       -1.1471350753
 C          4.1736569533       -2.7201467773       -0.3696216913
 C          4.8047415192       -3.8657140478        0.0938219427
 C          4.0814517907       -4.7552233024        0.8644532905
 C          2.7493978475       -4.5084584050        1.1835243060
 C          2.1018827134       -3.3722003862        0.7359447105
 C          2.8184681591       -2.4882328553       -0.0531186815
 H         -2.4662721677        1.3021067311       -2.0580955300
 H         -4.5188125397        2.1257012764       -3.1296076519
 H         -6.5693011012        0.7849931044       -3.1280548592
 H         -6.6094531930       -1.4585475404       -2.0915671663
 H         -5.9805715158       -3.7980766118       -0.7910321233
 H         -4.8661383984       -5.6199530360        0.4561065712
 H         -2.5468806623       -5.3831306089        1.2050261105
 H         -1.2589397638       -3.3511948403        0.7255895061
 H         -1.2495979107        3.4049611445       -0.6147830993
 H         -2.5635781867        5.4021345422       -1.1617041633
 H         -4.9240868294        5.5778628971       -0.5339607348
 H         -6.0496817438        3.7314737088        0.6666232180
 H         -6.6774270772        1.3888253659        1.9597093675
 H         -6.6262761743       -0.8433970415        3.0198387384
 H         -4.5457169688       -2.1322406737        3.1229793223
 H         -2.4703599754       -1.2690672256        2.1260730393
 H          2.7298990157       -1.0361447202        2.2020292360
 H          4.9163993941       -1.6779822631        3.1261147706
 H          6.8962273773       -0.2785004358        2.7742907125
 H          6.7321660394        1.8512072282        1.5311846103
 H          5.8714525601        4.0290675189        0.0797831146
 H          4.5594860698        5.6619794822       -1.2340289603
 H          2.1942378963        5.2606815801       -1.7226654823
 H          1.0558520726        3.2410664461       -0.9106008661
 H          2.7061823267        1.0575949777       -2.1720200080
 H          4.8618881782        1.6481451499       -3.1955546939
 H          6.8253012625        0.2080756150       -2.9266459942
 H          6.6750333318       -1.9076119420       -1.6574381056
 H          5.8415520079       -4.0514052986       -0.1403824816
 H          4.5530090233       -5.6534722323        1.2328162639
 H          2.2109415010       -5.2162640388        1.7959634880
 H          1.0732801882       -3.1873442935        1.0050554097
  94
  -153.292831202700       0.272889378156552      !
 N         -0.0017161351       -2.6428411636       -2.9179746195
 C         -0.0026252769       -1.8117821153       -2.1278992677
 C         -0.0020806696       -0.8392390445       -1.1012046818
 C         -1.2288930852       -0.4257254675       -0.5570345577
 N         -2.4241100074       -0.8720735353       -1.1115828864
 C         -2.8564908786       -0.6224996621       -2.4052533733
 C         -2.1757026273       -0.0539009766       -3.4683740430
 C         -2.8614017422        0.1202826102       -4.6560650512
 C         -4.1968310527       -0.2499414246       -4.7823911721
 C         -4.8857667954       -0.7971289212       -3.7174721021
 C         -4.2158167848       -0.9845325601       -2.5171355035
 C         -4.6171440094       -1.4874481896       -1.2316175684
 C         -5.8084829129       -1.9900279765       -0.7290117963
 C         -5.8431017774       -2.4196257286        0.5838323013
 C         -4.7011984487       -2.3906742980        1.3790097365
 C         -3.5022135069       -1.9008434870        0.8966816384
 C         -3.4828299026       -1.4086514400       -0.3976498119
 C         -1.2275314394        0.4260860805        0.5613528744
 N         -2.4221626995        0.8721823464        1.1179870115
 C         -3.4811789364        1.4051677618        0.4019606371
 C         -3.4980340274        1.8994590230       -0.8916054332
 C         -4.6973984177        2.3846567389       -1.3773436954
 C         -5.8423534656        2.4063215425       -0.5862743187
 C         -5.8107143939        1.9739371123        0.7256771982
 C         -4.6187353360        1.4763624634        1.2318727976
 C         -4.2193997633        0.9717202965        2.5173406797
 C         -4.8932989916        0.7757684921        3.7141441989
 C         -4.2056585816        0.2286695874        4.7798339351
 C         -2.8670418371       -0.1317841175        4.6583002982
 C         -2.1773968410        0.0509085297        3.4742861457
 C         -2.8576961364        0.6175176253        2.4096554704
 C          0.0003117125        0.8422113720        1.1008675101
 C          0.0000548365        1.8157550441        2.1266375874
 N         -0.0006248150        2.6476003646        2.9157813923
 C          1.2270514807        0.4297899215        0.5559498754
 N          2.4230459185        0.8808437187        1.1050097137
 C          2.8622525567        0.6389413015        2.3978148984
 C          2.1879421206        0.0747407503        3.4673823147
 C          2.8796233683       -0.0906123837        4.6528790120
 C          4.2144727654        0.2842673802        4.7708748384
 C          4.8969916850        0.8272592852        3.6996122227
 C          4.2210182464        1.0056270768        2.5013647697
 C          4.6148828714        1.5030405091        1.2113851435
 C          5.8024535408        2.0069865102        0.7012385108
 C          5.8300765547        2.4302936778       -0.6138330541
 C          4.6847250673        2.3936167844       -1.4035984820
 C          3.4893313585        1.9024495696       -0.9134939667
 C          3.4768882619        1.4166513035        0.3832776017
 C          1.2256223333       -0.4249328634       -0.5603096210
 N          2.4212814943       -0.8758098711       -1.1108556063
 C          2.8642645967       -0.6305255407       -2.4015936832
 C          2.1927392178       -0.0658075399       -3.4727194195
 C          2.8893769889        0.1058104384       -4.6544049316
 C          4.2262127527       -0.2636721959       -4.7675952953
 C          4.9052816416       -0.8089888882       -3.6954250490
 C          4.2243213733       -0.9937972038       -2.5009529791
 C          4.6142196438       -1.4951284717       -1.2112921587
 C          5.8001853446       -1.9994900510       -0.6978842746
 C          5.8225944836       -2.4279545783        0.6156481515
 C          4.6742493635       -2.3947056949        1.4011596866
 C          3.4807936134       -1.9017192910        0.9083501425
 C          3.4731642264       -1.4125351828       -0.3871416313
 H         -1.1441698410        0.2506364534       -3.3856183297
 H         -2.3491778892        0.5547348127       -5.5015167369
 H         -4.6983233589       -0.0997943128       -5.7262068835
 H         -5.9253308706       -1.0706136681       -3.8113755312
 H         -6.6864906193       -2.0462300342       -1.3538073732
 H         -6.7630604699       -2.8036178431        0.9974074070
 H         -4.7496370753       -2.7599306884        2.3924159288
 H         -2.6168175270       -1.9100001209        1.5128061926
 H         -2.6102934611        1.9132839670       -1.5042142708
 H         -4.7439817926        2.7557936597       -2.3901185667
 H         -6.7624917092        2.7867317466       -1.0026931909
 H         -6.6912706351        2.0243627649        1.3472298108
 H         -5.9349801553        1.0423096662        3.8042566367
 H         -4.7102560016        0.0710444329        5.7207800809
 H         -2.3560574809       -0.5654036297        5.5048930491
 H         -1.1433381485       -0.2456044348        3.3948682974
 H          1.1568006458       -0.2327101605        3.3912833531
 H          2.3726070413       -0.5213803801        5.5033361430
 H          4.7209212630        0.1411861331        5.7131779324
 H          5.9361487538        1.1044118251        3.7874005029
 H          6.6825847792        2.0692772541        1.3223879293
 H          6.7468721354        2.8154404611       -1.0333267577
 H          4.7271094908        2.7579273631       -2.4190685158
 H          2.6015958399        1.9063204193       -1.5263063659
 H          1.1600572334        0.2375215256       -3.4006380716
 H          2.3849176312        0.5377008131       -5.5057767984
 H          4.7364446938       -0.1148032230       -5.7069335053
 H          5.9456605375       -1.0828339629       -3.7788441725
 H          6.6832730541       -2.0581384946       -1.3151560363
 H          6.7380722724       -2.8136755594        1.0373744608
 H          4.7128390634       -2.7627973982        2.4153826096
 H          2.5906659804       -1.9070176428        1.5177142971
  94
  -153.292580339400       0.209265599225175      !
 N          0.0367550799       -3.3225677759       -2.1147971851
 C          0.0200110418       -2.4028606047       -1.4300802424
 C          0.0096785317       -1.2267120779       -0.6448893363
 C         -1.2167415209       -0.6179216191       -0.3376979965
 N         -2.4147124332       -1.2121343221       -0.7203236534
 C         -3.4462204380       -0.5489090633       -1.3655040594
 C         -3.4216195586        0.6679935557       -2.0261520319
 C         -4.5981868779        1.1108285681       -2.6004229950
 C         -5.7614229420        0.3488187314       -2.5447802280
 C         -5.7708150409       -0.8944095623       -1.9417014982
 C         -4.6021458701       -1.3556298366       -1.3531956619
 C         -4.2435840105       -2.5726196926       -0.6771773304
 C         -4.9512618090       -3.7183149845       -0.3440096981
 C         -4.3007150600       -4.7204292749        0.3490464776
 C         -2.9658584134       -4.5842263339        0.7179138594
 C         -2.2430356042       -3.4496022951        0.3999476213
 C         -2.8861105485       -2.4504339386       -0.3108989503
 C         -1.2169850709        0.6175068278        0.3369049637
 N         -2.4151529404        1.2091910670        0.7223129141
 C         -2.8890379515        2.4480009058        0.3168574454
 C         -2.2471470125        3.4524383566       -0.3876199263
 C         -2.9711004838        4.5886946324       -0.6975489003
 C         -4.3061101383        4.7210848625       -0.3279383753
 C         -4.9560982586        3.7128607514        0.3568454790
 C         -4.2472066554        2.5656794511        0.6822423093
 C         -4.6043084515        1.3446923758        1.3518707038
 C         -5.7735994404        0.8769396216        1.9339771089
 C         -5.7622199967       -0.3689111746        2.5316185124
 C         -4.5959000109       -1.1258663330        2.5907699447
 C         -3.4186651215       -0.6762045049        2.0232062789
 C         -3.4459807825        0.5415665439        1.3643439794
 C          0.0096553597        1.2276633807        0.6408768566
 C          0.0220884276        2.4032369261        1.4268661990
 N          0.0420730778        3.3222429698        2.1123817850
 C          1.2372212460        0.6283989825        0.3116949746
 N          2.4292719295        1.2754810526        0.6233272966
 C          3.5087317163        0.7062211534        1.2769752404
 C          3.5627762381       -0.4604015630        2.0211792295
 C          4.7780510266       -0.8091422575        2.5794102312
 C          5.9023701402       -0.0027958551        2.4277560161
 C          5.8339954699        1.1932365490        1.7393169667
 C          4.6258813199        1.5597598854        1.1643968519
 C          4.1919177650        2.7060630540        0.4132759449
 C          4.8332061895        3.8532109802       -0.0316468955
 C          4.1148504369        4.7667514927       -0.7784093710
 C          2.7780375845        4.5411393035       -1.0929748956
 C          2.1203213293        3.4038430205       -0.6630005115
 C          2.8311874873        2.4965270640        0.1043412046
 C          1.2374321716       -0.6262382285       -0.3187835613
 N          2.4295558475       -1.2725298540       -0.6316027532
 C          3.5101461543       -0.7010742172       -1.2815814575
 C          3.5640323050        0.4652094017       -2.0263318096
 C          4.7804893337        0.8166590410       -2.5802683610
 C          5.9062466618        0.0132607113       -2.4238474502
 C          5.8382806340       -1.1826073192       -1.7350735759
 C          4.6289137936       -1.5518719767       -1.1645888415
 C          4.1950733002       -2.6987552328       -0.4142434842
 C          4.8377873715       -3.8436831896        0.0343516248
 C          4.1190904744       -4.7584877086        0.7792011978
 C          2.7803979356       -4.5364030657        1.0881039725
 C          2.1213259725       -3.4011988892        0.6546781029
 C          2.8326885447       -2.4924629158       -0.1104916622
 H         -2.5190848415        1.2542009223       -2.1007275424
 H         -4.6118517576        2.0661276197       -3.1032769870
 H         -6.6628839038        0.7306133975       -2.9991273842
 H         -6.6649480869       -1.4983186071       -1.9309838434
 H         -5.9898916742       -3.8179943645       -0.6191505206
 H         -4.8319175464       -5.6214757319        0.6151055629
 H         -2.4835405505       -5.3799667444        1.2656325535
 H         -1.2119700666       -3.3592948347        0.7031752100
 H         -1.2155751922        3.3661435534       -0.6902296530
 H         -2.4892247290        5.3890445825       -1.2389086272
 H         -4.8377783958        5.6240975366       -0.5864046096
 H         -5.9949636952        3.8093109632        0.6322520671
 H         -6.6701684048        1.4771915203        1.9212625365
 H         -6.6642994045       -0.7562061862        2.9800365285
 H         -4.6074921833       -2.0824813874        3.0911151809
 H         -2.5138010107       -1.2583291770        2.1007051007
 H          2.6920819106       -1.0800365011        2.1680678033
 H          4.8533954078       -1.7249702087        3.1462147897
 H          6.8356748567       -0.3114031714        2.8733628816
 H          6.6986845237        1.8327702028        1.6517060891
 H          5.8739846854        4.0214577946        0.1982517611
 H          4.5943448347        5.6666820490       -1.1322553981
 H          2.2436229882        5.2667945671       -1.6878131633
 H          1.0878868309        3.2369114936       -0.9284815878
 H          2.6923056495        1.0825511525       -2.1767381698
 H          4.8556364944        1.7321881641       -3.1475669756
 H          6.8405043912        0.3240791082       -2.8658858994
 H          6.7043023560       -1.8198072416       -1.6436603726
 H          5.8798006864       -4.0094751860       -0.1916212661
 H          4.5994606751       -5.6570744199        1.1351671902
 H          2.2454408284       -5.2631770368        1.6810626013
 H          1.0874180101       -3.2370901411        0.9159087894
  94
  -153.291780990300       8.981366728839446E-002 !
 N         -0.0058416441       -3.0865973681       -2.4736272212
 C         -0.0057978780       -2.1906868074       -1.7581580742
 C         -0.0048802923       -1.0881285345       -0.8718705142
 C         -1.2305715014       -0.5526040032       -0.4437417721
 N         -2.4284535701       -1.0903415133       -0.9068637844
 C         -2.8590075469       -1.0671864842       -2.2254295091
 C         -2.1689077488       -0.7059447101       -3.3706537941
 C         -2.8556805036       -0.7314408012       -4.5703852526
 C         -4.1978207204       -1.0947425284       -4.6305569826
 C         -4.8941875429       -1.4340071276       -3.4869776090
 C         -4.2248406210       -1.4185033823       -2.2717392985
 C         -4.6336542763       -1.6725258269       -0.9171402041
 C         -5.8341958788       -2.0492760073       -0.3329084564
 C         -5.8756524165       -2.2271883893        1.0367797997
 C         -4.7329582708       -2.0722045189        1.8161209803
 C         -3.5248590067       -1.7039427872        1.2545588464
 C         -3.4971075511       -1.4635983535       -0.1089253305
 C         -1.2294671256        0.5339901674        0.4475671488
 N         -2.4258029879        1.0763983666        0.9091950836
 C         -3.4899257457        1.4571371212        0.1088742501
 C         -3.5122305958        1.6985807036       -1.2545183692
 C         -4.7158485408        2.0770836754       -1.8188266268
 C         -5.8590353996        2.2410463953       -1.0420770191
 C         -5.8223479480        2.0623124582        0.3276523670
 C         -4.6263705670        1.6754974203        0.9147047626
 C         -4.2220608198        1.4193696366        2.2702994220
 C         -4.8928780265        1.4427702851        3.4846035488
 C         -4.2002439701        1.1022263759        4.6300959385
 C         -2.8605246658        0.7295806403        4.5728334936
 C         -2.1724611023        0.6955746796        3.3740594787
 C         -2.8586149039        1.0583264233        2.2269235794
 C         -0.0028100563        1.0676612092        0.8742957990
 C         -0.0012587461        2.1695752362        1.7614529227
 N          0.0037075291        3.0624900669        2.4806774806
 C          1.2222520577        0.5380510865        0.4388515420
 N          2.4220493242        1.0933941715        0.8759507701
 C          3.4736717312        0.3783694442        1.4240442311
 C          3.4775017873       -0.9057128066        1.9424268146
 C          4.6700368947       -1.3904606638        2.4455610794
 C          5.8206029770       -0.6074171367        2.4592713038
 C          5.8027135071        0.6948841520        1.9975169053
 C          4.6180664343        1.2001913379        1.4816304440
 C          4.2319589894        2.4769990470        0.9456119513
 C          4.9174534504        3.6623211426        0.7214345481
 C          4.2411772313        4.7186527936        0.1430747421
 C          2.9027869736        4.5996963093       -0.2200677834
 C          2.2000173408        3.4279973055       -0.0086956071
 C          2.8705196064        2.3737503468        0.5889703276
 C          1.2214737160       -0.5577480084       -0.4409145069
 N          2.4220754317       -1.1065178764       -0.8848864416
 C          3.4677094502       -0.3783171978       -1.4278219289
 C          3.4562970731        0.9048018091       -1.9484347602
 C          4.6449306735        1.4059754612       -2.4445976244
 C          5.8066830585        0.6395457354       -2.4490209506
 C          5.8043143515       -0.6624612604       -1.9860956931
 C          4.6234901690       -1.1842489859       -1.4778310131
 C          4.2511547325       -2.4657121007       -0.9430519721
 C          4.9514590775       -3.6413036881       -0.7140843892
 C          4.2858869108       -4.7070969927       -0.1406090673
 C          2.9433944235       -4.6069468009        0.2125573019
 C          2.2260414839       -3.4447465126       -0.0028103381
 C          2.8861667618       -2.3807944363       -0.5947377762
 H         -1.1307687864       -0.4113183867       -3.3415275634
 H         -2.3385397877       -0.4605545734       -5.4786333217
 H         -4.6990171598       -1.1024515556       -5.5865091152
 H         -5.9391367563       -1.6995901982       -3.5317945063
 H         -6.7137151374       -2.2027572098       -0.9388167522
 H         -6.8024994846       -2.5099252754        1.5120341427
 H         -4.7879263852       -2.2436219676        2.8806347130
 H         -2.6401635426       -1.6096794832        1.8649562394
 H         -2.6265492725        1.5982600803       -1.8625613401
 H         -4.7668035916        2.2496746548       -2.8833492030
 H         -6.7827056601        2.5303313946       -1.5195914285
 H         -6.7024968516        2.2214763565        0.9312843041
 H         -5.9354384074        1.7177631793        3.5275984660
 H         -4.7018618114        1.1187622011        5.5856140155
 H         -2.3460515814        0.4592727502        5.4827572703
 H         -1.1364339585        0.3934074752        3.3469582284
 H          2.5855633920       -1.5126056425        1.9595525592
 H          4.7060679250       -2.3956821760        2.8377273741
 H          6.7344633121       -1.0218290438        2.8572494366
 H          6.6880347009        1.3105728818        2.0406744098
 H          5.9592350607        3.7497468306        0.9882282804
 H          4.7554362566        5.6499184991       -0.0389204356
 H          2.4015369730        5.4387029851       -0.6789569912
 H          1.1646874061        3.3500073903       -0.3044142483
 H          2.5556911327        1.4986317626       -1.9715357141
 H          4.6694324837        2.4115202716       -2.8368618084
 H          6.7176002610        1.0674193339       -2.8389758059
 H          6.6988762044       -1.2648372261       -2.0215650575
 H          5.9962206020       -3.7142100510       -0.9740447976
 H          4.8118370353       -5.6311717184        0.0448972063
 H          2.4504658493       -5.4532232327        0.6670737115
 H          1.1876502043       -3.3811901303        0.2854496295
