66
 energy: -96.350535554095 gnorm: 0.000024796950 xtb: 6.7.1 (edcfbbe)
C            1.48924022737567       -3.88991946625326        2.18587393435890
C            1.07966928453272       -2.71789454026647        2.79935398830832
C            1.04659294801984       -1.53186759025935        2.08772650672707
C            1.44674677764647       -1.50914658044125        0.75710516529700
P            1.24029026727625       -0.06610460114374       -0.32515276478497
C            2.94713369652457        0.12639176906521       -1.00424381080131
C            4.09456310780196       -0.49527263303244       -0.52841246609002
C            5.32028391044729       -0.22074345237977       -1.10902592394425
C            5.41283247682114        0.67377107093283       -2.16212312185249
C            4.27227081066489        1.29753174994770       -2.64143328525056
C            3.04707196427367        1.02054614862536       -2.06643554484918
C            1.33803929692541        1.37486278773079        0.79317276806978
C            2.27752376915478        1.44338911895005        1.81351810724715
C            2.34074080728746        2.55393286792611        2.63440789000223
C            1.47171719211489        3.61308232051311        2.42680975961906
C            0.55798815015215        3.56744238955532        1.39020601271875
C            0.47782661273709        2.45389235191460        0.55805728544199
C           -0.48052983115845        2.45278034286375       -0.56085098086055
C           -0.56217332584390        3.56549170555636       -1.39397460478104
C           -1.47604771451450        3.60904689787671       -2.43054062316338
C           -2.34364393464895        2.54854681514788       -2.63721451722411
C           -2.27893265371894        1.43879813166928       -1.81536453097124
C           -1.33937187103795        1.37243824283381       -0.79494747280807
P           -1.24013800152891       -0.06698744636888        0.32523015726908
C           -2.94728702945632        0.12499961891504        1.00368315290968
C           -4.09405014415830       -0.49843216518981        0.52856045998058
C           -5.32019479488542       -0.22379690111063        1.10822144536656
C           -5.41383407089026        0.67261787636604        2.15960681159426
C           -4.27392684807200        1.29808235616135        2.63825222388011
C           -3.04829565577141        1.02096537525564        2.06424138690620
C           -1.44500700557432       -1.51181608182086       -0.75492227234682
C           -1.83478363510015       -2.69691475864421       -0.13576418992641
C           -1.86082693867119       -3.88118698712434       -0.84637688997227
C           -1.48452444550086       -3.89486658099039       -2.17995649122657
C           -1.07636409528438       -2.72330293357501       -2.79525601196493
C           -1.04476984282661       -1.53611746950070       -2.08548832209065
C            1.83789764109298       -2.69474380277596        0.13977568112808
C            1.86542895593021       -3.87786905391019        0.85224803358338
H            1.50756942963183       -4.81457233306537        2.74433730115115
H            0.77516040330439       -2.72909844620425        3.83630933406169
H            0.71210403058528       -0.62104467445791        2.56630052681947
H            4.03277510711473       -1.19698896714505        0.29190660369171
H            6.21018630609474       -0.70719504126135       -0.73500990029498
H            6.37330052805422        0.88331522717441       -2.61012246932709
H            4.34085342489540        1.99477071610872       -3.46425781428168
H            2.14580262062925        1.49844411643938       -2.43281579770263
H            2.96093654361491        0.61802313279736        1.95952790655013
H            3.06685729010674        2.59550245633618        3.43324517446575
H            1.51227464538294        4.48055812700219        3.06948871866134
H           -0.11682194893319        4.39642532602972        1.22838696686232
H            0.11153115999394        4.39551696263731       -1.23289183857862
H           -1.51785163891166        4.47595664579487       -3.07390409161312
H           -3.06987798377919        2.58848735536425       -3.43602861574242
H           -2.96127988995088        0.61241772014673       -1.96061979699062
H           -4.03137255316002       -1.20167796774589       -0.29037795427953
H           -6.20958425751996       -0.71162119555519        0.73477515874710
H           -6.37464717257592        0.88230431790773        2.60679926597387
H           -4.34336924270995        1.99683898634952        3.45971276876164
H           -2.14754861517478        1.50030411488999        2.43002708170659
H           -2.11096380211794       -2.67862209199042        0.91112943355355
H           -2.16539721751744       -4.79649762767934       -0.35948193569528
H           -1.50166120392410       -4.82042520156871       -2.73695546751153
H           -0.77180107552611       -2.73576865970390       -3.83217989629089
H           -0.71137604101073       -0.62563360758539       -2.56546618992445
H            2.11397215202747       -2.67777785077351       -0.90716725581757
H            2.17107394319001       -4.79357043348560        0.36676483752241
