66
 energy: -96.261765600595 gnorm: 0.000073078180 xtb: 6.7.1 (edcfbbe)
C            0.97990356866902       -3.96523487744884        2.65571995599401
C            0.23921629915011       -2.84986104055689        3.01685833069392
C            0.35602389459185       -1.67898097224667        2.29459268640184
C            1.24368694473037       -1.60516979623383        1.22128000390179
P            1.16456064727055       -0.16720997433075        0.14236187755653
C            2.82193473460456        0.00612112487051       -0.62398762834712
C            3.99365466710776       -0.33066426265004        0.05695964602585
C            5.21613777996477       -0.01479411187683       -0.49936650316888
C            5.28910939392489        0.64250955672888       -1.71991488943147
C            4.12345380382335        0.99794577213802       -2.38531193626637
C            2.89555777613456        0.68926056731288       -1.83840530327461
C            0.99020871234641        1.30064829227286        1.16104705457290
C            1.70881812112902        1.36563116513827        2.36160750214981
C            1.73651456663140        2.51695070361567        3.10772010209098
C            1.08387625535607        3.65772000474585        2.63044611638020
C            0.42844995993237        3.62619065982517        1.42131371755641
C            0.36424917883163        2.46581762862112        0.63960111986465
C           -0.34574791098768        2.47255540952806       -0.62567044834778
C           -0.40144289933110        3.63845924054162       -1.39977959128403
C           -1.05669293832577        3.68270658748888       -2.60860805234151
C           -1.71776400628113        2.54992980285117       -3.09324109075373
C           -1.69847733866734        1.39357195883293       -2.35468028805198
C           -0.98026228856633        1.31545970855484       -1.15467297185374
P           -1.16530197214092       -0.15770272774392       -0.14558514984135
C           -2.82121794994532        0.02277799242864        0.62223988209284
C           -3.99547153659267       -0.30130085173564       -0.06048712549530
C           -5.21553309066881        0.01990473029875        0.49811913575674
C           -5.28349102567389        0.67010136252975        1.72275323185712
C           -4.11516578525881        1.01295601942447        2.39005241594578
C           -2.88963861431338        0.69884428740791        1.84090371262946
C           -1.25506963742232       -1.58799080451113       -1.23380641948695
C           -1.97313071010289       -2.72040864058856       -0.85529054807505
C           -1.85988885730749       -3.88494052560645       -1.58921210751491
C           -1.00877109116108       -3.94049374396475       -2.68368521764126
C           -0.26014092890659       -2.82817053529289       -3.03779351789118
C           -0.36826003116466       -1.66121685925594       -2.30785973782076
C            1.95367665481591       -2.74025678090434        0.83560390457054
C            1.83178372207189       -3.90869533615624        1.56188914961791
H            0.88286530606227       -4.88267397840909        3.21700699844826
H           -0.43744585315641       -2.89887049765120        3.85778572465096
H           -0.22143515608819       -0.80325906547950        2.56465839973237
H            3.94066117830456       -0.83524962443521        1.01107649086451
H            6.12348502942533       -0.28005629461644        0.02458895398698
H            6.25116527178990        0.88406893406018       -2.14607015502828
H            4.17759393845962        1.51903522675070       -3.33019375000693
H            1.98038572697528        0.97318505828430       -2.34279532044897
H            2.21766394229407        0.47420700021000        2.70836862547565
H            2.25838120543489        2.54497854549128        4.05286857740123
H            1.09650400116106        4.56652228281032        3.21386597881110
H           -0.08053255833908        4.51551356753349        1.07895512571809
H            0.11403480267480        4.52177631938444       -1.05163728716952
H           -1.06271824737657        4.59539174198518       -3.18604848941360
H           -2.23949648900352        2.58798271143715       -4.03811511738298
H           -2.21388322271778        0.50819844603470       -2.70721289639094
H           -3.94633496219638       -0.80024621104224       -1.01777418225656
H           -6.12488197223945       -0.23549802365992       -0.02726717302307
H           -6.24369336781943        0.91594501798239        2.15065187159662
H           -4.16533224009235        1.52856546464635        3.33815633677748
H           -1.97233861672993        0.97303240900835        2.34681977776627
H           -2.61594233282348       -2.67912235867052        0.01364558013375
H           -2.42722053781761       -4.75839334522277       -1.30222495427708
H           -0.91853324595830       -4.85492742209985       -3.25097880191074
H            0.41592851364026       -2.87659608168701       -3.87923040973554
H            0.21547666322665       -0.78796404010114       -2.57236578947880
H            2.59705780689237       -2.69795697587471       -0.03286187662749
H            2.39287793284158       -4.78433942572827        1.26937021480955
