66
 energy: -96.262942283394 gnorm: 0.000074349711 xtb: 6.7.1 (edcfbbe)
C            2.06388382256648       -2.95446410377244        3.60037240115407
C            0.76234794397930       -2.76874945867011        3.15969137465328
C            0.49823718879515       -1.85140340978427        2.16098718217321
C            1.53214573368615       -1.11855356915789        1.58856203503140
P            1.11547933184295        0.09396748173307        0.31618902449172
C            2.68236112367742        0.42388017530541       -0.56088799895883
C            3.04899591828308        1.73188769080391       -0.86637078398340
C            4.17865877064410        1.96510693414385       -1.62710150002224
C            4.92960522080177        0.90249730930016       -2.10637044480140
C            4.54280752380230       -0.40244417614350       -1.83298143303246
C            3.41357487172621       -0.64620213117702       -1.07872192032461
C            0.62391477659645        1.59158963475397        1.16025927023093
C            1.13244909235075        1.83605289624826        2.44060995569918
C            0.81830894759222        2.98881367068837        3.11751281281190
C           -0.01546515673706        3.93323084750910        2.50954608311942
C           -0.51241715142181        3.70943779077271        1.24767455827471
C           -0.21837804620651        2.54569243654779        0.52240606806061
C           -0.78487553109735        2.34311211551389       -0.79299385645044
C           -1.04375777418983        3.44153036019850       -1.62641653176975
C           -1.59590251087124        3.29849101221751       -2.87570660127555
C           -1.95114049169879        2.02796648305408       -3.34582015538291
C           -1.73495017892745        0.93384350311743       -2.54941884745481
C           -1.09733035864633        1.05020537428024       -1.30508008441030
P           -1.11906914454897       -0.39140989245977       -0.23231777518107
C           -2.80976640695824       -0.54816512135542        0.44853175328776
C           -3.88218012340005       -0.98989424377107       -0.33404520261307
C           -5.16413048726181       -0.90952736889408        0.16597306729491
C           -5.40034321310795       -0.37864085687430        1.42798958540466
C           -4.33784435114466        0.08531779261979        2.19416796660637
C           -3.05129300307250        0.01342456011776        1.70585229689556
C           -0.84708859550196       -1.81834096976311       -1.29077700552135
C           -1.41076929923547       -3.05980212122315       -0.99473573034744
C           -1.02580281039806       -4.17859228016022       -1.70507544229478
C           -0.05216897494045       -4.08159521364219       -2.69053870059780
C            0.54089474032427       -2.85596729481857       -2.96023153988637
C            0.15877728363328       -1.73204550676610       -2.25766534399799
C            2.83865820846897       -1.30667801879180        2.03318994608831
C            3.09668523515561       -2.22139465780795        3.03845883323364
H            2.27225960825765       -3.66805772272629        4.38363382965944
H           -0.04497500158107       -3.33726238866777        3.59712401391492
H           -0.51716736750981       -1.69966771973124        1.80876127320145
H            2.45561874211878        2.55346922393025       -0.48925557204542
H            4.47425386630945        2.97971353559195       -1.85108829414124
H            5.80987266591372        1.08940567607326       -2.70317873448727
H            5.12094479291416       -1.22942764881346       -2.21942808749830
H            3.08960203458230       -1.65891686340973       -0.87516045337710
H            1.77842152714192        1.09604540567786        2.89610860623807
H            1.20897815636907        3.16498307399404        4.10849915995204
H           -0.27825692531365        4.83655361667243        3.04011474967060
H           -1.18288867798886        4.43644874562060        0.81319684794097
H           -0.77178522515148        4.43018057158834       -1.28481656680986
H           -1.76191981401527        4.16626620281929       -3.49697218996081
H           -2.39292523289414        1.91552954646158       -4.32493020711499
H           -2.01811617052665       -0.05452508089483       -2.89178024411791
H           -3.69982568501389       -1.39718866870345       -1.31838641363741
H           -5.99248542027313       -1.25990708901367       -0.43360601161149
H           -6.40900705212001       -0.31827104044796        1.80790732393660
H           -4.52074972542523        0.50646697110376        3.17228593199014
H           -2.21420035123207        0.37769755612385        2.28966187738592
H           -2.15687429762542       -3.13502089107284       -0.21483058213530
H           -1.47755853494176       -5.13561100157433       -1.48691817729205
H            0.25061618733650       -4.96125560932682       -3.23874819427738
H            1.30788254111462       -2.78148785314825       -3.71796906249594
H            0.61298520035342       -0.76977486117753       -2.46293099779053
H            3.64542158036007       -0.73218855132254        1.59988513945408
H            4.10950209999604       -2.35865334309028        3.38834576233286
