  94
       -127.76269860
 C         -2.3884586007       -3.5419282281       -3.7370481258
 C         -2.2049271235       -2.2043190618       -3.0886828620
 C         -3.1675540585       -1.2069618404       -3.2270174446
 C         -3.0017384410        0.0326338213       -2.6478421322
 C         -1.8574686287        0.3130074721       -1.8948596007
 N         -1.6801121701        1.5661800146       -1.3032961542
 C         -2.7723622954        2.2482272546       -0.7677755425
 C         -3.8245186354        1.5572669633       -0.1600906689
 C         -4.8864581481        2.2473447541        0.3863383828
 C         -4.9387942361        3.6369444794        0.3528436124
 C         -6.0815037849        4.3883384859        0.9639826532
 C         -3.8876522865        4.3202102399       -0.2548452253
 C         -2.8213538633        3.6452590210       -0.8076127839
 C         -0.3944631665        2.0673684746       -1.1619427360
 C          0.0082579288        2.7902876525       -0.0131383591
 C          1.3232264443        3.0648780584        0.2079571330
 C          2.3484699682        2.6190292151       -0.6840337182
 C          3.7746983493        2.4192455604       -0.2213867190
 C          3.3261699949        1.0853259681        0.3283912646
 C          2.7446464473        0.9705737921        1.6291848709
 C          1.9176898282       -0.0607951534        1.9494279817
 C          1.6397255697       -1.0893858451        1.0193910672
 N          0.6357961410       -2.0144613608        1.2668310340
 C          0.7508928118       -3.3221120774        0.7937187034
 C         -0.3513277473       -3.9943422767        0.2580229082
 C         -0.2137637495       -5.2777542588       -0.2269778260
 C          1.0145164645       -5.9319122982       -0.2026240815
 C          1.1534683162       -7.3337726188       -0.7118523219
 C          2.1090353358       -5.2563426816        0.3305533559
 C          1.9869329725       -3.9744139634        0.8217052893
 C         -0.5355742563       -1.5995220191        1.9031816015
 C         -1.0107185850       -0.2941647747        1.7460395775
 C         -2.1649051068        0.1098278073        2.3818399420
 C         -2.8909223707       -0.7638172390        3.1837886855
 C         -4.1448601807       -0.3210287376        3.8730174206
 C         -2.4103025449       -2.0614271421        3.3437769398
 C         -1.2520045108       -2.4767964071        2.7233614142
 C          2.3947593986       -1.1108320155       -0.1786268145
 C          3.2097988957       -0.0698122917       -0.5038176366
 C          4.8295595679        2.3508874351       -1.3298332826
 C          6.1718823412        1.8879012035       -0.7687730428
 C          6.6688032589        2.8489561060        0.3034921934
 C          5.6188144276        2.9799079531        1.3993438696
 C          4.2824511738        3.4284178768        0.8129411056
 C          1.8919479772        2.1206258203       -1.9432682762
 C          0.5805915689        1.8346532999       -2.1615506827
 C         -0.8860679736       -0.6831448904       -1.7588730793
 C         -1.0623498648       -1.9153510382       -2.3504835864
 H         -1.7095469832       -4.2743138149       -3.3066145975
 H         -3.4118711596       -3.8928317766       -3.6165546255
 H         -2.1837793180       -3.4740657716       -4.8063700126
 H         -4.0579152168       -1.4063946107       -3.8064318032
 H         -3.7525378834        0.7982921372       -2.7789065608
 H         -3.7921416019        0.4790495273       -0.1077826102
 H         -5.6883234513        1.6950346866        0.8559872498
 H         -5.7666719038        4.8644640012        1.8934397447
 H         -6.9113452399        3.7217481813        1.1857941807
 H         -6.4295621282        5.1715020217        0.2926352163
 H         -3.9132994552        5.3996909525       -0.2983832053
 H         -2.0201326849        4.1871422172       -1.2882262666
 H         -0.7357722176        3.0897467141        0.7109975267
 H          1.5918143659        3.5989188535        1.1051511726
 H          2.9494967895        1.7212031311        2.3754594148
 H          1.4667167501       -0.1159614931        2.9303966845
 H         -1.3074551418       -3.4940808748        0.2121085288
 H         -1.0757457693       -5.7807251462       -0.6423828392
 H          2.1324274058       -7.4878869563       -1.1608500663
 H          0.3867604866       -7.5574382513       -1.4501656560
 H          1.0469686298       -8.0432790752        0.1101482877
 H          3.0705100248       -5.7485403214        0.3656938910
 H          2.8419080996       -3.4654552248        1.2420002113
 H         -0.4719319738        0.3982372827        1.1185185328
 H         -2.5169788940        1.1221086701        2.2425405101
 H         -4.5095454275        0.6104858327        3.4470619529
 H         -3.9562527712       -0.1606502296        4.9352169602
 H         -4.9216297380       -1.0786902080        3.7849797000
 H         -2.9523160574       -2.7536707494        3.9725328836
 H         -0.8876657369       -3.4829804818        2.8715843118
 H          2.2864105770       -1.9454296749       -0.8563564822
 H          3.7459639329       -0.1101511563       -1.4383942566
 H          4.9373389917        3.3472751633       -1.7661683622
 H          4.5326252585        1.6752672946       -2.1290148453
 H          6.9033910051        1.8172664945       -1.5773527849
 H          6.0511282885        0.8929139381       -0.3342172099
 H          7.6102172438        2.4892250873        0.7246397013
 H          6.8542587067        3.8291548870       -0.1432849375
 H          5.9501143137        3.6992242431        2.1521813399
 H          5.4881034677        2.0127071337        1.8898552030
 H          4.4062396303        4.3938470548        0.3153662222
 H          3.5694445285        3.5712144366        1.6220256030
 H          2.5976797987        1.9557052804       -2.7415535016
 H          0.2587364994        1.4337848679       -3.1125188519
 H          0.0033473659       -0.4854482492       -1.1815510047
 H         -0.3024400979       -2.6738918969       -2.2262282604
