94
 energy: -127.765810077547 gnorm: 0.000075692053 xtb: 6.7.1 (edcfbbe)
C           -2.41820952280637       -3.57135063381281       -3.70469257314321
C           -2.22218290713105       -2.22967916509132       -3.06799789697427
C           -3.18287132532702       -1.23043432444800       -3.20229633926534
C           -3.00788572245972        0.01168721145877       -2.63089379622763
C           -1.85713253072356        0.29193997457784       -1.88829740386772
N           -1.67392706054450        1.54594635737001       -1.30120248514898
C           -2.76433164850205        2.23911421569918       -0.77460261208853
C           -3.81859007664551        1.56094392493594       -0.15778771784011
C           -4.87991038549238        2.26274303662035        0.37569495079132
C           -4.92832400581110        3.65134447923794        0.31944032127233
C           -6.07187026851075        4.41636957828989        0.91226632604833
C           -3.87366718219153        4.32196083573059       -0.29545993076356
C           -2.80825199636616        3.63502617112815       -0.83553662488935
C           -0.38641996246531        2.04450760741360       -1.15623570243335
C            0.00993102256580        2.77260359269976       -0.00788639415258
C            1.32178865795936        3.05615438194936        0.21590498922505
C            2.35276965622680        2.61354901585886       -0.67378637015772
C            3.77950726457726        2.42522048992658       -0.20918385372590
C            3.33342214961705        1.08941659844710        0.33662979468013
C            2.74952216408519        0.96942430293653        1.63769366806134
C            1.92327636060342       -0.06319812329925        1.95259573096782
C            1.64481447524343       -1.08786924326384        1.01718954083745
N            0.64069422912864       -2.01434503442161        1.26326142653364
C            0.74683134747086       -3.31845512959011        0.77830355130591
C           -0.36389314096829       -3.98204578102426        0.25071153690437
C           -0.23757182267795       -5.26227063023605       -0.24675592059669
C            0.98768721394285       -5.92100452207093       -0.24272822286544
C            1.11858037155750       -7.31759747358070       -0.76866324523530
C            2.09076415736556       -5.25473442698595        0.28438423251855
C            1.97974120852966       -3.97654793283500        0.78811976184907
C           -0.52719248535018       -1.60082549677465        1.90831542313036
C           -1.00562113644531       -0.29699597367547        1.75416310663379
C           -2.15631029492323        0.10508135713161        2.39817729548072
C           -2.87437113363049       -0.76966791014693        3.20563932626169
C           -4.12341683603535       -0.32870287941070        3.90514515215356
C           -2.39050298244479       -2.06608983297219        3.36213027289218
C           -1.23581452579614       -2.47941549443364        2.73299754661224
C            2.40060754329943       -1.10480694407905       -0.18063653764332
C            3.21894268802933       -0.06553507194272       -0.50012302118396
C            4.83794277269240        2.36431815085721       -1.31435328732641
C            6.18180106364947        1.91100018158373       -0.74903402243633
C            6.66874833582476        2.87636814699924        0.32403626353516
C            5.61508199342270        2.99911440208474        1.41736189583193
C            4.27661599574175        3.43673969773800        0.82777205517353
C            1.90066090933340        2.10635428408846       -1.93351669205089
C            0.59196323132530        1.81181691738748       -2.15262108349319
C           -0.88734641648610       -0.70567898850356       -1.75750512603465
C           -1.07167621536098       -1.93982320355188       -2.34341051921537
H           -1.72419030776523       -4.29878311030746       -3.29042237270784
H           -3.43616665474034       -3.92595363271368       -3.55240087701682
H           -2.24557388878009       -3.50816449983973       -4.77979443313169
H           -4.07953739392811       -1.43007079916071       -3.77193146964208
H           -3.75798927934675        0.77852334395353       -2.75906119065320
H           -3.78963631852044        0.48351366472126       -0.08898921856729
H           -5.68440909646001        1.72010227142669        0.85206514940432
H           -5.75294456590542        4.93034791800352        1.81976223831997
H           -6.89448581852463        3.75242040274373        1.16632632429396
H           -6.43210561042349        5.17042342153137        0.21433695616788
H           -3.89635006783609        5.40071761030382       -0.35675861377156
H           -2.00380325054934        4.16691717983668       -1.32197606731828
H           -0.73849287301993        3.07171241014237        0.71191670592596
H            1.58540770935435        3.59677557138750        1.11058463366528
H            2.95610850703730        1.71596143919025        2.38762829164858
H            1.47249505570168       -0.12336952245346        2.93334135510323
H           -1.31873235992224       -3.47826538575076        0.22017870684563
H           -1.10701417032096       -5.75756673272141       -0.65582378751540
H            2.05847034282241       -7.44351570899032       -1.30255733184639
H            0.29690373940524       -7.55983792875905       -1.43864991100538
H            1.10525717969550       -8.03185582669268        0.05580443078431
H            3.05035331205718       -5.75148793385906        0.30428055304076
H            2.84154335261533       -3.47580025520214        1.20432972395367
H           -0.47255471586016        0.39600536671422        1.12243477503848
H           -2.51165623536752        1.11649096077802        2.26053698636970
H           -4.49961193651007        0.59620474852728        3.47450107591679
H           -3.92295758168893       -0.15620139880688        4.96331192367890
H           -4.89578732091112       -1.09259974017013        3.83405928291982
H           -2.92639254635642       -2.75936692098900        3.99501099564249
H           -0.86852338094439       -3.48493287271023        2.87858618245044
H            2.29296003136009       -1.93727792876071       -0.86115302293221
H            3.76063496574834       -0.10456179197732       -1.43147272773682
H            4.93977708169088        3.36144250559278       -1.75043906922558
H            4.54807663032721        1.68652631041389       -2.11424311769441
H            6.91622554577401        1.84531522941449       -1.55539767664518
H            6.06667212924866        0.91532694332618       -0.31433884755816
H            7.61194573276912        2.52428710782817        0.74760809788472
H            6.84751868072356        3.85794482309192       -0.12243578635540
H            5.93861089091379        3.72135192704823        2.17082475727203
H            5.49068238583999        2.03110677292190        1.90793198829523
H            4.39385005192176        4.40377464462277        0.33168164826485
H            3.56035436087666        3.57245706655581        1.63522013179779
H            2.60896519337138        1.94519811799120       -2.73023331343458
H            0.27384559334779        1.40618104207279       -3.10282409537924
H            0.00801265256053       -0.50804897252747       -1.18945465158432
H           -0.31143672448678       -2.69884778454431       -2.22477281943415
