141
 energy: -199.999517240764 gnorm: 0.000075061924 xtb: 6.7.1 (edcfbbe)
C           -6.20162694074855        5.69283536385073        0.55925735358076
C           -4.77390540079262        5.66156449961575        0.00554240863150
C           -4.82757682341773        6.05743044466664       -1.47811521277324
C           -3.93725716460948        6.68584061159093        0.78762682624599
C           -4.12780925456245        4.29015559149368        0.12943417090559
C           -2.81247731642260        4.11741796558269       -0.32276928041159
C           -2.15023047273145        2.90917386818312       -0.25077513301671
C           -2.81940426994238        1.82815258251064        0.30379161128698
C           -4.14994172804303        1.97130831552112        0.75340889491703
C           -4.79488000871099        3.19447875796549        0.66418645244358
C           -4.55917346894186        0.67455611451881        1.22859345955260
C           -5.73376684733327        0.19581613683285        1.78580400354576
C           -5.81635245370995       -1.13277783218267        2.18549116484815
C           -7.08405287520064       -1.73184606262651        2.77475585196828
C           -7.52668109040859       -2.91449138414307        1.89973210394040
C           -6.79886936508209       -2.21891997537276        4.20357064218354
C           -8.23816112528046       -0.72644294677700        2.83555068793064
C           -4.68136578563360       -1.94329910123288        2.05164823144652
C           -3.50067962081455       -1.49167716405081        1.49832584096349
C           -3.45377061491192       -0.18262644173496        1.04320057952826
N           -2.41529828301977        0.51852225624465        0.46426473716337
C           -1.21797315695558       -0.02818168356417       -0.01404404978620
C           -0.00031442598734        0.56154342185124        0.38106924585329
C            1.21697905247843       -0.02782789408517       -0.01592866247505
N            2.41486041055511        0.51754087304083        0.46228253907409
C            2.81865590750873        1.82800813306677        0.30760721807224
C            2.14865960417570        2.91201164041804       -0.24016077384110
C            2.81076165131213        4.12064833006265       -0.30678439742407
C            4.12684621951570        4.29104285269199        0.14409092527874
C            4.77251438215534        5.66324778603571        0.02699183146800
C            6.20247519586158        5.69070903934211        0.57510894869117
C            3.93884902437852        6.68187216467639        0.81958396185288
C            4.82027121054800        6.06970092478120       -1.45399981628293
C            4.79472713008743        3.19256883568747        0.67205396410099
C            4.14988850253911        1.96899551686657        0.75597179849102
C            4.55987764495864        0.67001132622516        1.22436600391676
C            5.73531907669951        0.18869522858677        1.77754252059282
C            5.81849838252449       -1.14174918070052        2.17092396379660
C            7.08729357469950       -1.74375443818606        2.75480594388927
C            6.80467250518917       -2.23937380292839        4.18118593720629
C            8.24112970525623       -0.73829754861732        2.81975654611692
C            7.52883741994005       -2.92103679100016        1.87203282816408
C            4.68316863534350       -1.95150498973896        2.03540231060993
C            3.50157857079012       -1.49720563901197        1.48621741942489
C            3.45413434809028       -0.18620796455741        1.03676702450868
C            1.23449987778028       -1.14569074821321       -0.83658713571906
N            2.44104158451284       -1.67082966258197       -1.30943052700041
C            2.87104930100058       -2.97337242105715       -1.16224720659496
C            2.22919017881781       -4.05266904996535       -0.57183307668746
C            2.90282145045043       -5.25776609009543       -0.51925392149529
C            4.19261230482658       -5.38892383715188       -1.02915067575574
C            4.84667266719662       -4.31195778078582       -1.59867365587691
C            4.18891712864000       -3.09267230153227       -1.66364095173475
C            4.55779175535763       -1.79272663055198       -2.15325466662478
C            5.69743711307827       -1.28339732911387       -2.75821766462636
C            5.70250971033004        0.04203079081890       -3.15358580790016
C            4.57872742582292        0.84651471238175       -2.98179170480404
C            3.43374195218573        0.36146692505749       -2.37812900676692
C            3.44257621865108       -0.95163065372355       -1.93121587394036
C           -0.00128488566817       -1.73916691596231       -1.28226142700968
C           -0.00260569241457       -2.70673115525321       -2.26112550527796
N           -0.00421096398629       -3.53664181491301       -3.07908932651648
C           -1.23650915143229       -1.14713067969359       -0.83301407572577
N           -2.44381894994444       -1.67555675658334       -1.30030814349238
C           -3.44918142502758       -0.96031274894270       -1.92029999731753
C           -3.44403857358154        0.35086262481867       -2.37286643108628
C           -4.59244628394122        0.83186455628148       -2.97322917711097
C           -5.71608805658117        0.02530290167922       -3.13608137868584
C           -5.70752047804061       -1.29840898974045       -2.73507365400824
C           -4.56431725273254       -1.80380903063690       -2.13355088146819
C           -4.19140375823702       -3.10120739460101       -1.64023700592654
C           -4.84722796717722       -4.32105559554052       -1.56663970645640
C           -4.18898416241461       -5.39461446341950       -0.99549308629676
C           -2.89688701129537       -5.25957484648564       -0.49249924913703
C           -2.22508240803179       -4.05385344598746       -0.55374415616147
C           -2.87132918124947       -2.97804338860209       -1.14567840295880
H           -6.21763515649369        5.43380965927206        1.61549388306504
H           -6.84936859963480        5.01106988077753        0.01290642030488
H           -6.60780472714961        6.69679423009280        0.45391477336259
H           -5.30268185589653        7.02997945912051       -1.58774332256078
H           -3.83289827623431        6.11422356137625       -1.91156450845697
H           -5.40413268457348        5.32629694611247       -2.04151136808357
H           -4.40077339075005        7.66822713396781        0.72801503478147
H           -2.92826162561780        6.76261117665779        0.39245719869552
H           -3.87272010412818        6.39738827909878        1.83503052167028
H           -2.28581265649540        4.95509441614060       -0.75286759209064
H           -1.14354791636803        2.80914145104191       -0.62602652232211
H           -5.81188053221463        3.26922035112904        1.00937280480476
H           -6.56514507181775        0.87014614405161        1.90122275944930
H           -6.77667360889474       -3.70028960133188        1.88353114991456
H           -8.45352959194580       -3.33598225418977        2.28307053154699
H           -7.69315829503747       -2.58237852527138        0.87683550452003
H           -6.45866808095128       -1.39113586773529        4.82281118566333
H           -7.70437929130884       -2.63067188973720        4.64395851929972
H           -6.03403211340210       -2.99042870086494        4.21513556466714
H           -8.48907385898577       -0.35959410569372        1.84292407170938
H           -7.99139678032771        0.11539263684847        3.47840806191649
H           -9.11996741147400       -1.21386151200279        3.24648303378008
H           -4.71558774090556       -2.96661119657901        2.39148545078008
H           -2.64074819313402       -2.14104847196281        1.43441823541876
H            0.00000591839032        1.36673698150317        1.09489177527318
H            1.14127288378708        2.81425492837231       -0.61403420965604
H            2.28323000341733        4.96064536819107       -0.73124839559882
H            6.22270715019377        5.42550001448565        1.62973350735232
H            6.84770101540175        5.01189631867304        0.02212099496858
H            6.60863298207972        6.69511884919239        0.47402542827706
H            2.92804395277905        6.76050766959359        0.42941644157647
H            3.87911952509918        6.38654793491341        1.86535311160782
H            4.40153223787856        7.66490863426020        0.76436933834951
H            5.39328903157419        5.34181901966557       -2.02515171905380
H            3.82383722987500        6.13115018560008       -1.88271935363603
H            5.29629979023390        7.04234640562689       -1.55865615146410
H            5.81223545882797        3.26551737455965        1.01612234309371
H            6.56687685104528        0.86248299265483        1.89480942065339
H            7.71106612933244       -2.65341782964042        4.61758522586884
H            6.04012695426547       -3.01120499362380        4.18955834811561
H            6.46528180260272       -1.41534266063805        4.80584834716541
H            9.12366040345203       -1.22771303412832        3.22674849091801
H            8.49062902531218       -0.36570350396354        1.82892462759533
H            7.99483016314257        0.09972486768714        3.46775160691980
H            6.77904144327179       -3.70696837104413        1.85255372858386
H            7.69336526340998       -2.58286507070834        0.85080097240705
H            8.45651503016334       -3.34444203739829        2.25122976779513
H            4.71785266686566       -2.97636328248897        2.37049913116292
H            2.64137046890529       -2.14609082575531        1.42119473771448
H            1.23135201840698       -3.95927676568651       -0.17088532957712
H            2.41902454616502       -6.11387280235054       -0.07258860309186
H            4.68664698501354       -6.34750211749725       -0.97306172574170
H            5.85085527292918       -4.41368787282957       -1.98137315699181
H            6.55779224288066       -1.91408564288281       -2.92331592242362
H            6.58226145973531        0.45709904453259       -3.62232679985863
H            4.59749572516207        1.86819824581781       -3.33055969175204
H            2.55670942060266        0.98226965767090       -2.27547362042773
H           -2.56726388472780        0.97311856245247       -2.27697765447395
H           -4.61408579529015        1.85190491284532       -3.32658373442451
H           -6.59859103500356        0.43733110344660       -3.60233284229368
H           -6.56792050688266       -1.93080697546928       -2.89326262339225
H           -5.85313507070477       -4.42580833622278       -1.94395287778934
H           -4.68151443446366       -6.35354813093573       -0.93262612993250
H           -2.40984563756852       -6.11305098399859       -0.04432546402558
H           -1.22547521987253       -3.95719831454206       -0.15797236228274
