  141
       -199.93014789
 C         -6.4600788915        5.5425566745        0.3605766293
 C         -4.9912633233        5.5840305450       -0.0691403678
 C         -4.9405235734        5.9385739877       -1.5624794515
 C         -4.2862221057        6.6751737249        0.7492188228
 C         -4.2821490095        4.2566021584        0.1456111879
 C         -2.9251621752        4.1537768965       -0.1885209578
 C         -2.2076126172        2.9842497012       -0.0427571678
 C         -2.8652867319        1.8728338365        0.4613723414
 C         -4.2344421502        1.9492235788        0.8020694322
 C         -4.9322084496        3.1355414523        0.6429110738
 C         -4.6181247044        0.6337096660        1.2397942429
 C         -5.8166418442        0.0800680884        1.6609826832
 C         -5.8646318589       -1.2610383949        2.0174522374
 C         -7.1576498316       -1.9579883797        2.4057494453
 C         -7.4253583416       -3.0696940801        1.3813486523
 C         -7.0217366900       -2.5632116840        3.8096748137
 C         -8.3602787714       -1.0108651823        2.4102307193
 C         -4.6786968577       -2.0055007558        2.0045038927
 C         -3.4727602032       -1.4773144734        1.5932386119
 C         -3.4586248214       -0.1640153730        1.1509458545
 N         -2.4128248860        0.5858363224        0.6540511295
 C         -1.2138126947        0.0636293883        0.1579200818
 C          0.0020432613        0.6461807550        0.5624700585
 C          1.2148150828        0.0623247268        0.1524509052
 N          2.4164742143        0.5802860129        0.6467165872
 C          2.8712144564        1.8672613139        0.4611435566
 C          2.2176063961        2.9812785047       -0.0427927185
 C          2.9375711296        4.1501001444       -0.1817495993
 C          4.2930076486        4.2500337613        0.1596018377
 C          5.0046930487        5.5775406448       -0.0457739394
 C          6.4679957104        5.5357529099        0.4025190280
 C          4.2898254455        6.6678765953        0.7652856062
 C          4.9721249416        5.9336202156       -1.5392621505
 C          4.9393019221        3.1262195377        0.6555965291
 C          4.2390282985        1.9405063959        0.8079077272
 C          4.6192295022        0.6227077002        1.2416285474
 C          5.8148512634        0.0664012374        1.6674665674
 C          5.8601950241       -1.2766037514        2.0171588793
 C          7.1502800236       -1.9758073061        2.4112711494
 C          7.0058878773       -2.5812928419        3.8142217190
 C          8.3542809961       -1.0304588062        2.4224586067
 C          7.4220463469       -3.0874460513        1.3878754603
 C          4.6740591877       -2.0203929362        1.9933621298
 C          3.4705550794       -1.4891969745        1.5788208341
 C          3.4593778078       -0.1734210764        1.1438238741
 C          1.2313244257       -1.0361713666       -0.6996242818
 N          2.4424246920       -1.5434098261       -1.1741597768
 C          2.9122076901       -2.8251715506       -0.9893720353
 C          2.2644887438       -3.9338639844       -0.4643475352
 C          2.9883214743       -5.1030011210       -0.3294985367
 C          4.3293311484       -5.1717742591       -0.7012096493
 C          4.9845548318       -4.0672432770       -1.2141018487
 C          4.2788413476       -2.8826868893       -1.3572665337
 C          4.6364193389       -1.5658205684       -1.8040453032
 C          5.8090150293       -0.9929851033       -2.2720344131
 C          5.7932801948        0.3388640193       -2.6462778462
 C          4.6190811458        1.0859174155       -2.5962040989
 C          3.4387327720        0.5358797921       -2.1327116228
 C          3.4661521133       -0.7789583769       -1.6936770070
 C         -0.0033871555       -1.6179361558       -1.1559906933
 C         -0.0075347611       -2.5663468808       -2.1598525262
 N         -0.0122721628       -3.3702642332       -2.9996364003
 C         -1.2346239845       -1.0361688402       -0.6919550058
 N         -2.4480273959       -1.5468274658       -1.1579036836
 C         -3.4743641824       -0.7888413836       -1.6810039382
 C         -3.4523237651        0.5241340063       -2.1259986308
 C         -4.6345485494        1.0665683776       -2.5936186939
 C         -5.8053696429        0.3141524310       -2.6418397546
 C         -5.8159014500       -1.0156804360       -2.2603047819
 C         -4.6415125739       -1.5809287865       -1.7877379339
 C         -4.2793794813       -2.8938269540       -1.3328853159
 C         -4.9804772571       -4.0802877506       -1.1828179988
 C         -4.3212838099       -5.1788463098       -0.6622285133
 C         -2.9809529082       -5.1023088934       -0.2895551461
 C         -2.2615695150       -3.9313590775       -0.4317730604
 C         -2.9132583283       -2.8288379187       -0.9648929836
 H         -6.5509939848        5.3094743342        1.4189312465
 H         -7.0160231015        4.8077153717       -0.2168507815
 H         -6.9147714447        6.5161284554        0.1904035816
 H         -5.4585378783        6.8779107000       -1.7426099652
 H         -3.9169248117        6.0419358007       -1.9114039973
 H         -5.4239769998        5.1598431506       -2.1488697983
 H         -4.7965469299        7.6271148672        0.6206068762
 H         -3.2525251855        6.8002305411        0.4397730478
 H         -4.2969592278        6.4175280682        1.8062715655
 H         -2.4110924072        5.0159783932       -0.5834444319
 H         -1.1680753246        2.9372306954       -0.3273620796
 H         -5.9768142034        3.1594536186        0.9004262719
 H         -6.6938096314        0.7028216881        1.6940968663
 H         -6.6109831771       -3.7875642835        1.3593072114
 H         -8.3458318870       -3.5951034743        1.6268735056
 H         -7.5233546022       -2.6390226220        0.3874567630
 H         -6.7872069466       -1.7856294439        4.5336709299
 H         -7.9553239613       -3.0378332802        4.1033968510
 H         -6.2359017195       -3.3117999400        3.8457502353
 H         -8.5232182358       -0.5832264950        1.4238980251
 H         -8.2228454390       -0.2079130107        3.1307260163
 H         -9.2552558288       -1.5631093757        2.6888749073
 H         -4.6962942524       -3.0377722271        2.3143236499
 H         -2.5745320636       -2.0741518615        1.6103122951
 H          0.0041993009        1.4389600996        1.2893791624
 H          1.1793946755        2.9366745223       -0.3327145427
 H          2.4269052963        5.0140869027       -0.5771899139
 H          6.5456800045        5.2968935446        1.4607025733
 H          7.0323753511        4.8050087577       -0.1719586067
 H          6.9233886832        6.5108848289        0.2432972385
 H          3.2635375560        6.8019238914        0.4356184686
 H          4.2770659254        6.4033625052        1.8206284098
 H          4.8084688816        7.6173883487        0.6534861576
 H          5.4708382450        5.1599623107       -2.1196465878
 H          3.9526628893        6.0280551875       -1.9028415293
 H          5.4843138857        6.8776792363       -1.7107880645
 H          5.9829312350        3.1475930322        0.9173592955
 H          6.6919572990        0.6887085708        1.7098910079
 H          7.9371457594       -3.0575120030        4.1128271401
 H          6.2184891994       -3.3285330000        3.8456165595
 H          6.7686457456       -1.8035609022        4.5372378782
 H          9.2480171649       -1.5855284506        2.6995995814
 H          8.5194000619       -0.5979748253        1.4385860006
 H          8.2170496918       -0.2309563364        3.1469212555
 H          6.6070091719       -3.8042838958        1.3603700867
 H          7.5266894329       -2.6564950983        0.3948731217
 H          8.3401514950       -3.6143770344        1.6385706858
 H          4.6894542650       -3.0543958306        2.2975455670
 H          2.5719050915       -2.0855498809        1.5882783848
 H          1.2270380849       -3.8909070565       -0.1765104707
 H          2.5053160205       -5.9818446974        0.0710227202
 H          4.8619004767       -6.1038047610       -0.5838854165
 H          6.0253600687       -4.1237313037       -1.4941930549
 H          6.7141097608       -1.5768149451       -2.3471764220
 H          6.6994884772        0.8044280701       -3.0038850550
 H          4.6285926572        2.1140351501       -2.9261373982
 H          2.5265464354        1.1108684827       -2.1201781093
 H         -2.5428415891        1.1034287307       -2.1151308257
 H         -4.6481465060        2.0929899737       -2.9286912989
 H         -6.7130664284        0.7738585078       -3.0032789212
 H         -6.7184321644       -1.6037747369       -2.3334117867
 H         -6.0207662496       -4.1428537353       -1.4635561880
 H         -4.8502693600       -6.1122038499       -0.5392254370
 H         -2.4951332052       -5.9764296263        0.1178652908
 H         -1.2247371263       -3.8817474745       -0.1424644954
