  141
       -200.01933310
 C         -6.4658027801        5.5350502257        0.1951288015
 C         -4.9850600184        5.5763183154       -0.1916211873
 C         -4.8925476204        5.9026286937       -1.6891067520
 C         -4.3106448092        6.6868986510        0.6257875427
 C         -4.2769577156        4.2556198627        0.0707062690
 C         -2.9111869435        4.1528728581       -0.2195899099
 C         -2.1927798166        2.9891640913       -0.0304763636
 C         -2.8605042545        1.8859345537        0.4721863410
 C         -4.2363051114        1.9606801470        0.7689911380
 C         -4.9348148121        3.1423529202        0.5683329453
 C         -4.6314801930        0.6531926236        1.2177779082
 C         -5.8440842941        0.1075075287        1.6144400538
 C         -5.9058640036       -1.2253620897        1.9877050195
 C         -7.2101713993       -1.9136855292        2.3576095222
 C         -7.4534314218       -3.0519420749        1.3570246436
 C         -7.1125809251       -2.4803929893        3.7804916517
 C         -8.4113225729       -0.9661178771        2.3040114806
 C         -4.7223095745       -1.9728062902        2.0162232523
 C         -3.5034832690       -1.4524737325        1.6343992271
 C         -3.4740647498       -0.1462293536        1.1777656428
 N         -2.4047041270        0.6006812955        0.7137858517
 C         -1.2101336442        0.0642676315        0.2309429439
 C          0.0055345151        0.5961279208        0.6417959764
 C          1.2190330047        0.0626429786        0.2256019834
 N          2.4149265045        0.5932783420        0.7095360751
 C          2.8608139977        1.8886214136        0.5055638535
 C          2.1844728557        3.0023866333        0.0388944944
 C          2.8926684100        4.1782933798       -0.1086175250
 C          4.2571226554        4.2832358419        0.1867104616
 C          4.9517155378        5.6203861526       -0.0232222413
 C          6.4342247423        5.5778439436        0.3564426332
 C          4.2693528658        6.6886820572        0.8426078780
 C          4.8503369703        6.0087889971       -1.5052214416
 C          4.9247571826        3.1586432025        0.6443494061
 C          4.2361400012        1.9649731577        0.8045223524
 C          4.6409908071        0.6480880441        1.2158971728
 C          5.8573823428        0.1009540987        1.5986822665
 C          5.9284221615       -1.2404335898        1.9383753867
 C          7.2374091477       -1.9290943357        2.2904525459
 C          7.1441343990       -2.5323963290        3.6986055754
 C          8.4322488897       -0.9726040226        2.2609230821
 C          7.4877149001       -3.0401728844        1.2612002077
 C          4.7497048196       -1.9958796451        1.9497955619
 C          3.5272575380       -1.4742786268        1.5816340297
 C          3.4890724920       -0.1579461271        1.1554210447
 C          1.2267303189       -1.0208715345       -0.6733872974
 N          2.4244893359       -1.5520661033       -1.1503266645
 C          2.8710947241       -2.8489456272       -0.9631951824
 C          2.2046904173       -3.9458262471       -0.4421256778
 C          2.9022158143       -5.1336358875       -0.3304105482
 C          4.2357616472       -5.2304297329       -0.7176517392
 C          4.9101392522       -4.1348477190       -1.2199297865
 C          4.2289656960       -2.9323304559       -1.3414838473
 C          4.6146471668       -1.6211927900       -1.7837586750
 C          5.7988595505       -1.0804546090       -2.2631163335
 C          5.8185894865        0.2525432239       -2.6256758941
 C          4.6678479007        1.0325029457       -2.5539930362
 C          3.4759055455        0.5134289799       -2.0862242796
 C          3.4711194814       -0.8044328348       -1.6591384890
 C          0.0001686198       -1.5471070098       -1.1060253429
 C         -0.0055217919       -2.5410198242       -2.1120047360
 N         -0.0121816167       -3.3086464602       -2.9640077782
 C         -1.2229210082       -1.0235116344       -0.6617036632
 N         -2.4240260455       -1.5639186147       -1.1209609287
 C         -3.4753680389       -0.8278649408       -1.6358880465
 C         -3.4837199856        0.4806910813       -2.0904018319
 C         -4.6797853624        0.9900734291       -2.5580647572
 C         -5.8309876997        0.2086901734       -2.6027395117
 C         -5.8081979288       -1.1163535604       -2.2121423253
 C         -4.6198216616       -1.6473614781       -1.7319748036
 C         -4.2298848629       -2.9479907194       -1.2631134734
 C         -4.9090836760       -4.1473286987       -1.1044103056
 C         -4.2301206527       -5.2288830428       -0.5783855332
 C         -2.8929078880       -5.1225561063       -0.2063625719
 C         -2.1963625895       -3.9385887292       -0.3573104089
 C         -2.8686109564       -2.8555178123       -0.8992908923
 H         -6.5867791826        5.3173644089        1.2536837225
 H         -7.0010549842        4.7886334086       -0.3869698470
 H         -6.9194130383        6.5039290367       -0.0031973218
 H         -5.4097370810        6.8354337253       -1.9031820402
 H         -3.8595473033        6.0048449469       -2.0095992072
 H         -5.3544683115        5.1099954796       -2.2742779838
 H         -4.8221147183        7.6335074919        0.4653943441
 H         -3.2692005443        6.8123534509        0.3435481407
 H         -4.3499887373        6.4483118633        1.6866159664
 H         -2.3876552165        5.0094757826       -0.6150008727
 H         -1.1448205148        2.9465388611       -0.2868959741
 H         -5.9863263752        3.1640144365        0.7965831127
 H         -6.7186769522        0.7349149448        1.6156894332
 H         -6.6419527986       -3.7732212069        1.3768136363
 H         -8.3822393984       -3.5682283459        1.5906097471
 H         -7.5221486546       -2.6477120193        0.3497949495
 H         -6.8991341746       -1.6826601930        4.4890910404
 H         -8.0530410896       -2.9492980511        4.0618214767
 H         -6.3261520719       -3.2254496564        3.8582782802
 H         -8.5427006288       -0.5599234897        1.3040137207
 H         -8.2949384995       -0.1475525049        3.0103917946
 H         -9.3153396956       -1.5114669127        2.5673065281
 H         -4.7505001302       -3.0012855007        2.3390094717
 H         -2.6087982275       -2.0540395056        1.6854980954
 H          0.0071101008        1.4104151407        1.3494266462
 H          1.1370489936        2.9607436273       -0.2190930914
 H          2.3612567927        5.0437666116       -0.4729175007
 H          6.5614039566        5.3202049981        1.4052692748
 H          6.9741137363        4.8597603616       -0.2562522736
 H          6.8780115832        6.5580133949        0.1946215891
 H          3.2242157905        6.8113662660        0.5731472636
 H          4.3198871337        6.4087034283        1.8927933898
 H          4.7674154226        7.6475477342        0.7164080042
 H          5.3178734084        5.2463772102       -2.1250556544
 H          3.8152357188        6.1142062205       -1.8178055172
 H          5.3573013400        6.9550470899       -1.6811630122
 H          5.9760083813        3.1816223316        0.8738414353
 H          6.7274400578        0.7343980334        1.6162488545
 H          8.0898723134       -2.9959936769        3.9705869979
 H          6.3674267279       -3.2892929011        3.7556651617
 H          6.9186018438       -1.7555812074        4.4262556433
 H          9.3404669729       -1.5188615626        2.5071334909
 H          8.5586954697       -0.5382084481        1.2722170141
 H          8.3118640408       -0.1745686038        2.9898758980
 H          6.6814722074       -3.7678618061        1.2642823987
 H          7.5520812203       -2.6104866623        0.2640119539
 H          8.4207797370       -3.5550733933        1.4810502918
 H          4.7846885628       -3.0314920028        2.2481685455
 H          2.6365352951       -2.0824605018        1.6209153325
 H          1.1743344989       -3.8865920074       -0.1279113369
 H          2.4014865598       -6.0042918537        0.0663314077
 H          4.7464625208       -6.1764162442       -0.6179254776
 H          5.9470096037       -4.2080095398       -1.5100623881
 H          6.6833504723       -1.6925347739       -2.3550571918
 H          6.7333923780        0.6949899675       -2.9905153982
 H          4.7039731848        2.0639267309       -2.8716081242
 H          2.5839946070        1.1194409498       -2.0583527363
 H         -2.5911857899        1.0863883367       -2.0828000835
 H         -4.7188849293        2.0146871242       -2.8966582183
 H         -6.7490977858        0.6434185241       -2.9686324546
 H         -6.6938603379       -1.7295964975       -2.2831957637
 H         -5.9483131298       -4.2289241219       -1.3835526765
 H         -4.7403185422       -6.1713994486       -0.4476078585
 H         -2.3891457760       -5.9823377535        0.2099078731
 H         -1.1628432003       -3.8697150459       -0.0550770920
