141
 energy: -200.085270730632 gnorm: 0.000091960490 xtb: 6.7.1 (edcfbbe)
C           -6.20774460658910        5.34360999680639        0.66422288217609
C           -4.75898403763047        5.36037263010386        0.16737233847708
C           -4.75685276143924        5.88732741294118       -1.27550594691664
C           -3.95701572177935        6.31058899588552        1.06944066826737
C           -4.11442916190419        3.98132730932680        0.19860477153688
C           -2.78547285593626        3.84597254318198       -0.22157669479796
C           -2.11982859619416        2.63621315549954       -0.22120350983069
C           -2.80146287151708        1.51621672694784        0.22253142954111
C           -4.14417430444108        1.62003435005923        0.63530007683837
C           -4.79101274476093        2.84826168784598        0.62305117782967
C           -4.56602573161048        0.29374483406794        1.00136509932192
C           -5.75400022205336       -0.22822622402992        1.48599026487240
C           -5.84808732395385       -1.58091318357679        1.79105093078895
C           -7.17458932051599       -2.13761020709687        2.29035181974889
C           -7.57060327348240       -1.41682203501910        3.58774698998712
C           -8.24545179989905       -1.90076439358230        1.21489838916440
C           -7.11841311321226       -3.64071686747741        2.57973100367191
C           -4.71128174188758       -2.37831972202030        1.64097687769198
C           -3.51357716370761       -1.88274835348442        1.15810794855387
C           -3.45648861919538       -0.55012169917861        0.79479947090223
N           -2.39253686320035        0.19306823529836        0.30738759882234
C           -1.20220295654375       -0.33218742737666       -0.19546824941014
C            0.01828002007318        0.17204309873016        0.23923598816564
C            1.23055831044507       -0.35944018013785       -0.18732044575204
N            2.42710583577255        0.15363474652114        0.31421094008397
C            2.84766337464627        1.47146214156882        0.21126338532766
C            2.18452693748866        2.58617050075547       -0.27245206587778
C            2.86040797475244        3.78993316102226       -0.28731027082769
C            4.18239034159729        3.92363218246355        0.15575288018230
C            4.83932406331580        5.29627124963482        0.10523293278177
C            4.03654203244608        6.26851564729459        0.98272501305942
C            4.85541652488282        5.79782681353056       -1.34659175526910
C            6.28327370664615        5.27619577859790        0.61578073083553
C            4.84067197331182        2.79565511601369        0.62000610833847
C            4.18281523613374        1.57315940199003        0.64805589902843
C            4.58581385497848        0.25151755208782        1.04841333808940
C            5.76393158033122       -0.26236132042531        1.57285959482727
C            5.84242220715823       -1.60587855156487        1.90446924800830
C            7.10807290322683       -2.24019023175131        2.46435623948381
C            6.81985423273294       -2.79385966565437        3.86780485046289
C            8.26597054536111       -1.24336335683482        2.57508683481608
C            7.54833100740947       -3.38068224612408        1.53459317072135
C            4.70392473327576       -2.40368695183363        1.73343874401201
C            3.52038972280075       -1.91800802296722        1.21539354671985
C            3.47631284330688       -0.58821735643758        0.83314426773820
C            1.23121473518914       -1.42202211972473       -1.10895293643359
N            2.42357629614470       -1.96657524552616       -1.58590871624852
C            2.81477946929875       -3.29201987327691       -1.47957046840694
C            2.12641367635976       -4.37650917293675       -0.96059673104228
C            2.76518752776679       -5.60221767217307       -0.94480143175682
C            4.06465684557655       -5.74680604367362       -1.42278757592430
C            4.76366326064417       -4.66400106991955       -1.91947912851502
C            4.14066717648296       -3.42365721154976       -1.94532645237681
C            4.56288619361107       -2.11420552898765       -2.36240998868363
C            5.73664116575328       -1.61757721604202       -2.91264778240249
C            5.79960961587954       -0.27631344590868       -3.23763922389172
C            4.70129251008237        0.55860155050624       -3.05188804907162
C            3.52172004414436        0.08536917790004       -2.50847297127823
C            3.47403488054759       -1.24705946422526       -2.13168891887549
C            0.00124690467456       -1.91463272176039       -1.57310306735715
C           -0.00294840896618       -2.86906983746480       -2.61464531535233
N           -0.00375977989665       -3.59927840329305       -3.49954879814855
C           -1.22015349890290       -1.38737645458985       -1.12682486551272
N           -2.42267885248830       -1.88284615557629       -1.63133338890625
C           -3.43485057726382       -1.11030760829791       -2.17801740915492
C           -3.41804038961996        0.22717035508496       -2.53924127729956
C           -4.56798687281316        0.75929040849145       -3.09166623329236
C           -5.70010571696651       -0.02318559704982       -3.30062568856574
C           -5.70173014776735       -1.36936459630909       -2.99037475984490
C           -4.55876844911365       -1.92445936352401       -2.43122649133911
C           -4.20004891590899       -3.25622552600373       -2.02567201484256
C           -4.88006819053923       -4.46647140269022       -2.02004576204047
C           -4.23482593553516       -5.58729767867698       -1.53513192155293
C           -2.93290991269337       -5.50917796819127       -1.04848660152909
C           -2.23887518112591       -4.31381615168356       -1.04159539784169
C           -2.87365704105192       -3.19091909685475       -1.54699667572374
H           -6.26415642254903        4.99992146113891        1.69467005922814
H           -6.82851066504137        4.70548596078863        0.03927859472026
H           -6.61568554995159        6.35170775941069        0.62360408629843
H           -5.22688459189178        6.86780018374087       -1.31593088478019
H           -3.74650983960343        5.97892655888496       -1.66465124124768
H           -5.31230822604507        5.21187603161748       -1.92338066302539
H           -4.42106905651299        7.29460016149153        1.08244253243835
H           -2.93417195094124        6.42235936518543        0.72046006473032
H           -3.92961269047456        5.92831078068420        2.08813474217793
H           -2.24612191145870        4.71529456959638       -0.56524164228095
H           -1.09941399769041        2.57482519183128       -0.56850314778742
H           -5.81791468497262        2.89204378281209        0.94394926106249
H           -6.59579128366929        0.43171553606390        1.62512736609302
H           -7.69917378181378       -0.35026034593947        3.42593716695586
H           -8.50724082600123       -1.81895772612349        3.96822060413309
H           -6.80169772022882       -1.55653313158807        4.34528158894496
H           -7.96264728369136       -2.39963495634536        0.29002441047746
H           -9.20272367362786       -2.29896070331827        1.54505224056975
H           -8.37011768028516       -0.84205616980048        1.00525390214480
H           -6.40210839243385       -3.86236341568565        3.36785273089337
H           -6.85239145796523       -4.20215672198835        1.68673431372357
H           -8.09739038527439       -3.98073390795214        2.91203744927563
H           -4.74315277241147       -3.42133134187730        1.90759453177815
H           -2.65090073186170       -2.52786733748033        1.08083715443154
H            0.02501716655298        0.96068971857670        0.97650186402438
H            1.17162554476246        2.52346456944305       -0.64148596995100
H            2.33599368888362        4.65547714385992       -0.66219669152160
H            3.01670427638996        6.37833378049575        0.62428739677867
H            3.99999198170922        5.90637149411041        2.00846095667683
H            4.50581726933502        7.25012434679578        0.97966638474244
H            5.40590337794896        5.10329534436222       -1.97832892051432
H            3.84961302396226        5.89729370824877       -1.74536218726182
H            5.33962675314265        6.77072307942189       -1.40042874476122
H            6.32720181807729        4.95402677332971        1.65370355782135
H            6.90327626382880        4.61887335445514        0.01028969253778
H            6.70135259161828        6.27927256975305        0.55766630375829
H            5.86170658523757        2.83819109527384        0.95913866212899
H            6.59752799461928        0.40382764075464        1.71717356609699
H            7.72181962412269       -3.23310626413480        4.28883849006213
H            6.04919692406832       -3.55937308178277        3.84205368078748
H            6.48472930641438       -1.99432728594244        4.52588831703455
H            9.14581237547359       -1.75261751186508        2.96348512054850
H            8.51896330153154       -0.82974784486113        1.60152169386632
H            8.02065259502863       -0.43208949113313        3.25677080990623
H            7.71880699365314       -2.99986083259911        0.52952868530834
H            8.47251872195895       -3.82474901658704        1.89882758233593
H            6.79466745859993       -4.16127544760015        1.47893642857662
H            4.73557860067709       -3.44432625689171        2.01726178257334
H            2.65861031131516       -2.56252328610038        1.12539674475848
H            1.12257367022056       -4.27634050524611       -0.57412584612825
H            2.24447079303957       -6.46248061596277       -0.55087795364244
H            4.53043053668341       -6.72055016034443       -1.39679122797645
H            5.77646049461668       -4.77397750234694       -2.27559146156323
H            6.57720887589725       -2.27147487304394       -3.08797764310429
H            6.70587036740813        0.13050051287043       -3.66082686819620
H            4.76649720823480        1.59655143735550       -3.34208674977750
H            2.66777241801503        0.73572900807014       -2.39451624163894
H           -2.53681418833508        0.83655322147529       -2.40740940777772
H           -4.58266684513590        1.80215482642932       -3.37090628390078
H           -6.58173735848390        0.42828385065182       -3.73033087863128
H           -6.56887537436794       -1.98202711852441       -3.18411403973093
H           -5.89378725696152       -4.52468545288988       -2.38602012880646
H           -4.74474403372649       -6.53894005102138       -1.52593329520200
H           -2.45434005692531       -6.39830174766610       -0.66550828575264
H           -1.23328582487119       -4.26665385199454       -0.64998858425381
