141
 energy: -199.999505430012 gnorm: 0.000065182774 xtb: 6.7.1 (edcfbbe)
C           -6.23010449097160        5.67389535286361        0.60762731299047
C           -4.79412238528496        5.65883746385951        0.07491049281742
C           -4.82879087411421        6.07719560645087       -1.40312432877874
C           -3.97453863193582        6.67574717220571        0.88416053490581
C           -4.14178863482990        4.28944900911717        0.18840789033749
C           -2.82209862155936        4.12821392089638       -0.25530509128308
C           -2.15482115343323        2.92211515777126       -0.19317938264771
C           -2.82319137426839        1.83115821705193        0.34265009102949
C           -4.15684164794890        1.96377985212967        0.78642665663192
C           -4.80692204984166        3.18484410478286        0.70682087469579
C           -4.56379146035514        0.66010708884312        1.24410608435328
C           -5.73924571110707        0.17096091213783        1.79039474363497
C           -5.81924174055269       -1.16252927983356        2.17387685298573
C           -7.08735426372737       -1.77229299521980        2.75126669738492
C           -7.52643101152388       -2.94212348769560        1.85748489664039
C           -6.80471365603945       -2.28061318889111        4.17316420239177
C           -8.24301722691120       -0.76953134956063        2.82510447628769
C           -4.68124238985580       -1.96788679702752        2.03444945831210
C           -3.49947929188477       -1.50563427028398        1.49222441604222
C           -3.45457328761059       -0.19086028071702        1.05369351261306
N           -2.41547853122722        0.52081065908001        0.48845687748867
C           -1.21729234887183       -0.01897170722947        0.00429020980180
C            0.00059553107346        0.56516149720406        0.40733655931045
C            1.21772756948098       -0.02105653383071        0.00498081956576
N            2.41654389809844        0.51594535950591        0.49058051992029
C            2.82662410541151        1.82590727089176        0.34784759076432
C            2.16069937451186        2.91920622963338       -0.18630093356742
C            2.83001719914111        4.12434925513764       -0.24492039916349
C            4.14939244408757        4.28248760098825        0.20083140137955
C            4.80392781928987        5.65117944236088        0.09175178925584
C            6.23885565163797        5.66293712027618        0.62736961445583
C            3.98427512981863        6.66743632001891        0.90176184370635
C            4.84208191086064        6.07284217335525       -1.38525795845007
C            4.81219508445117        3.17554822434832        0.71727224839558
C            4.16007043665159        1.95536799358569        0.79321910704399
C            4.56447609051221        0.65002207458052        1.24840189842880
C            5.73873982782631        0.15772984343430        1.79438750244022
C            5.81629718145778       -1.17675861637012        2.17492600582926
C            7.08322522193355       -1.79006889712196        2.75114684223841
C            6.79923777234152       -2.30277740074448        4.17119327908282
C            8.24018109533549       -0.78909652583585        2.82893968594668
C            7.52114074613142       -2.95748175741704        1.85363159630515
C            4.67698066018963       -1.97983108352874        2.03314383821404
C            3.49631394460039       -1.51435830096610        1.49128174752525
C            3.45394849645642       -0.19862471316282        1.05534611760175
C            1.23483276361025       -1.12956169264513       -0.82840235154067
N            2.44104546438481       -1.65105829102197       -1.30617713243710
C            2.86883955651547       -2.95582983623074       -1.17317672025756
C            2.22501136118368       -4.04044111085505       -0.59472741766901
C            2.89656115339501       -5.24716793886080       -0.55512729989873
C            4.18614287558747       -5.37496659646731       -1.06642028750871
C            4.84210257845928       -4.29299475446004       -1.62414112466481
C            4.18659423170251       -3.07185806956483       -1.67562922018203
C            4.55787254610643       -1.76716940794964       -2.15058931629688
C            5.69875666702346       -1.25283128432396       -2.74896068979149
C            5.70632136238053        0.07705539293462       -3.12909344684530
C            4.58358701046337        0.88122565427445       -2.94936005265708
C            3.43738879905540        0.39123613476021       -2.35201687183787
C            3.44397398536291       -0.92672404789886       -1.91965341735857
C           -0.00091888900714       -1.71631750261655       -1.28270561827226
C           -0.00175534550231       -2.67236122590291       -2.27286206605811
N           -0.00275458277869       -3.49221974536976       -3.10089656106368
C           -1.23589253738263       -1.12790687606221       -0.82840425770128
N           -2.44280431396850       -1.64860305799301       -1.30533203247598
C           -3.44516887270292       -0.92420265857789       -1.91959253011912
C           -3.43721706360790        0.39296774736213       -2.35434353304529
C           -4.58306925513366        0.88316458414874       -2.95217374171031
C           -5.70682436931450        0.07999014283800       -3.12995669438638
C           -5.70069711018548       -1.24918812960105       -2.74732081886047
C           -4.56015429109392       -1.76376558144521       -2.14853251293731
C           -4.19017187739641       -3.06804888534921       -1.67141997195699
C           -4.84704484261209       -4.28833856513204       -1.61741137960170
C           -4.19197951545434       -5.37008880846257       -1.05819552098051
C           -2.90193872983361       -5.24288586359415       -0.54791994245517
C           -2.22904741852711       -4.03698656875463       -0.58998155121312
C           -2.87202559542449       -2.95264962093581       -1.16987820946146
H           -6.26020052058440        5.40302847688844        1.66056671252083
H           -6.86470614690378        4.99376072827604        0.04400282474457
H           -6.64180320868732        6.67613156056739        0.50729047670119
H           -5.30925815783262        7.04799452150636       -1.50458692408624
H           -3.82846032242268        6.14793547302374       -1.82114394768492
H           -5.39181892372535        5.35095406189650       -1.98610721066322
H           -4.44191550361334        7.65670356810496        0.83153378521262
H           -2.96010254546603        6.76250000174618        0.50524650700353
H           -3.92426190486613        6.37275319577103        1.92821375406087
H           -2.29589439660163        4.97361184153566       -0.67060983707916
H           -1.14474814705263        2.83155330844927       -0.56170922920850
H           -5.82656198191760        3.25080493684227        1.04594633280352
H           -6.57321369671275        0.84128767668130        1.91028624766342
H           -6.77447448962921       -3.72574511044697        1.82982711359701
H           -8.45267166264493       -3.37167393261647        2.23328990701134
H           -7.69278443898193       -2.59444883082034        0.83976406244659
H           -6.46722602789088       -1.46174501603108        4.80559658129342
H           -7.71061246150468       -2.70034130157893        4.60513626165104
H           -6.03880941769444       -3.05111799302843        4.17493612265994
H           -8.49344706943331       -0.38881418836001        1.83761906034464
H           -7.99805827319443        0.06323926224167        3.48034470684299
H           -9.12458640342155       -1.26408835876068        3.22796009943368
H           -4.71382892310818       -2.99559868513666        2.36092117106863
H           -2.63716729553547       -2.15142423698881        1.42414178596764
H            0.00102909983150        1.36202623350254        1.13039954271956
H            1.15088304400086        2.83124263258274       -0.55613532999311
H            2.30566185231853        4.97153519845397       -0.65892242798268
H            6.26647419750203        5.38918069571111        1.67963085143112
H            6.87369574356847        4.98350291785483        0.06318692418763
H            6.65206656103140        6.66489920458193        0.53057128858704
H            2.97082685579762        6.75685411536640        0.52085551495500
H            3.93120205538140        6.36195011619069        1.94495409354555
H            4.45340220426521        7.64773713558425        0.85260647424380
H            5.40545542491537        5.34727630436990       -1.96876296125873
H            3.84266204048431        6.14565078684297       -1.80509216510481
H            5.32385004542565        7.04332268640418       -1.48356872906565
H            5.83152787399673        3.23906259002057        1.05779026856618
H            6.57374307066485        0.82639952184826        1.91629464137475
H            7.70427966228580       -2.72552223174843        4.60201968952666
H            6.03205311939197       -3.07200386640929        4.17012571016344
H            6.46293529185525       -1.48549191751675        4.80629641936247
H            9.12072364258254       -1.28601395556148        3.23113358280667
H            8.49203975500093       -0.40583783474796        1.84280196172719
H            7.99573496120486        0.04208627881882        3.48638789955460
H            6.76813671097894       -3.73999300398518        1.82310592145784
H            7.68830984830695       -2.60663481728870        0.83712997643187
H            8.44669011011045       -3.38948533078249        2.22832237989813
H            4.70762632660273       -3.00832472806021        2.35734057961641
H            2.63290423702386       -2.15848476092717        1.42145710272438
H            1.22722894896726       -3.94970512771962       -0.19302035563868
H            2.41136100810372       -6.10725144582112       -0.11772277670350
H            4.67859596698376       -6.33490166832535       -1.02069410681291
H            5.84611534973221       -4.39235063333630       -2.00789588029915
H            6.55820879044076       -1.88297508728045       -2.92067797046567
H            6.58712903336269        0.49602568270759       -3.59232290615291
H            4.60415168390075        1.90667811399691       -3.28669933567210
H            2.56111159555391        1.01205300771551       -2.24318037982771
H           -2.56016522370403        1.01294744583506       -2.24696454008676
H           -4.60253876330302        1.90796840140968       -3.29153436440506
H           -6.58733083201599        0.49914739884525       -3.59359091114449
H           -6.56099810815561       -1.87860629692425       -2.91744939871570
H           -5.85137303893697       -4.38724177497599       -2.00045799027160
H           -4.68549427756631       -6.32938414162713       -1.01050977557262
H           -2.41745573460785       -6.10278103484091       -0.10934510639643
H           -1.23093957735042       -3.94661074146393       -0.18898535791585
