  130
       -171.93481975
 C          4.8301287340        2.3188012420        4.4668131068
 C          4.2310591690        2.5753218187        3.1132296773
 C          3.8082752007        3.8574298684        2.7911613459
 C          3.2724489622        4.1491047704        1.5401469248
 C          2.8203968230        5.5502834216        1.2425672503
 C          3.1419192745        3.1339163121        0.6018861564
 C          2.4958547662        3.4684298061       -0.7239525941
 C          1.0583111472        3.5227667247       -0.5774622337
 C         -0.1346053252        3.5038085234       -0.4012257176
 C         -1.5350422591        3.5085960654       -0.2376321161
 C         -2.3847974921        3.2959508654       -1.3243849829
 C         -3.7515688441        3.3174288911       -1.1703300066
 C         -4.3369638774        3.5589193427        0.0820452287
 N         -5.6993480574        3.5955581257        0.2320240183
 C         -6.2915766063        3.7426285571        1.5354207228
 C         -6.5631524950        3.5998122347       -0.9217779648
 C         -3.4747551898        3.7629479883        1.1710927750
 C         -2.1084895585        3.7331920789        1.0146820234
 C          3.4875921589        1.7998594873        0.9223008682
 B          3.1006183750        0.5873132040        0.0023303240
 C          2.5373739932       -0.7224000843        0.6278084127
 C          3.0524266948       -1.9992737499        0.2475576125
 C          4.1207936134       -2.0858697219       -0.8021321491
 C          2.5990986254       -3.1627581888        0.8491343843
 C          3.1042861220       -4.5205561973        0.4469456513
 C          1.6688435108       -3.0825788426        1.8797899773
 C          1.1430634573       -1.8606914969        2.2891996185
 C          0.1447118652       -1.8389093161        3.4111789978
 C          1.5530851819       -0.6996387984        1.6526716344
 C          0.8537623369        0.5912523703        2.0226028421
 C         -0.5062897932        0.5389320114        1.5297311974
 C         -1.6163385903        0.4361520423        1.0736429639
 C         -2.9171423609        0.3254157966        0.5384622755
 C         -3.1034814322        0.0154315683       -0.8078110544
 C         -4.3686929471       -0.0819693451       -1.3426712784
 C         -5.5102033636        0.1228524106       -0.5565765668
 N         -6.7834450294        0.1039206399       -1.1104470101
 C         -6.9577160188       -0.4543604715       -2.4315809378
 C         -7.9224095171        0.0125697929       -0.2269998404
 C         -5.3134418652        0.4004908974        0.8017731727
 C         -4.0467807464        0.5077402291        1.3336886458
 C          3.3165190022        0.6834033874       -1.5518186934
 C          4.5591837779        1.0001277014       -2.1485653937
 C          5.6992697750        1.5317481022       -1.3310678496
 C          4.7587505424        0.7612738031       -3.5021781765
 C          6.0848581816        1.0444262276       -4.1450780557
 C          3.7233315925        0.2346143887       -4.2746078788
 C          2.4640066667        0.0063344846       -3.7380441280
 C          1.3552630397       -0.4995244264       -4.6161625730
 C          2.2476202832        0.2935698797       -2.3968248177
 C          0.8430702827        0.2641472179       -1.8386488040
 C          0.4500945375       -1.0610700976       -1.4244931943
 C          0.1108066932       -2.1730938917       -1.1036961284
 C         -0.2971749825       -3.4361939680       -0.6401840178
 C         -1.1574984301       -3.5323905557        0.4581220842
 C         -1.5327959926       -4.7588573685        0.9526345862
 C         -1.0664983457       -5.9491457970        0.3710701113
 N         -1.4239857667       -7.1753735393        0.8716571632
 C         -0.6987323977       -8.3688486607        0.5177360345
 C         -2.5119462074       -7.3167950879        1.8046952529
 C         -0.2246865660       -5.8430992220       -0.7479045871
 C          0.1469946857       -4.6144903096       -1.2426663979
 C          4.1100226111        1.5555742078        2.1760632206
 C          4.6610532172        0.2002103862        2.5078216256
 H          5.8973681872        2.1077695626        4.3865791843
 H          4.3549897498        1.4641569166        4.9463048354
 H          4.7056673943        3.1896983708        5.1067656641
 H          3.9127337514        4.6501487159        3.5188438238
 H          2.9117754752        6.1728427821        2.1298769889
 H          3.4253431010        5.9972348795        0.4519509444
 H          1.7798827543        5.5597390565        0.9178472374
 H          2.8617460245        4.4260115450       -1.1045125512
 H          2.7414750907        2.6976960011       -1.4586345373
 H         -1.9579422707        3.1090305068       -2.2993747877
 H         -4.3701501248        3.1287806767       -2.0324221940
 H         -5.8565275578        3.0263109614        2.2352187277
 H         -7.3605160820        3.5472101695        1.4727545675
 H         -6.1512339089        4.7535967154        1.9384038391
 H         -7.5767741534        3.8491424173       -0.6152557676
 H         -6.2378394390        4.3486748469       -1.6493511266
 H         -6.5805706529        2.6194120165       -1.4084474057
 H         -3.8727275414        3.9591725842        2.1533775334
 H         -1.4657716435        3.8903482469        1.8685229959
 H          4.7063428805       -2.9954288729       -0.6999292254
 H          4.7918259839       -1.2341432534       -0.7372828204
 H          3.6747173227       -2.0759723629       -1.7976393000
 H          3.0392336200       -4.6579609062       -0.6304246766
 H          2.5111812260       -5.2964401200        0.9269196696
 H          4.1448745869       -4.6549943685        0.7468070600
 H          1.3408500613       -3.9900016049        2.3686387816
 H         -0.7764990921       -1.3467608714        3.1030390472
 H          0.5422234818       -1.2958773336        4.2703721551
 H         -0.0898552080       -2.8528516046        3.7282438644
 H          0.8490318243        0.7367788984        3.1071701828
 H          1.3525952407        1.4470803485        1.5687300268
 H         -2.2382971870       -0.1608194081       -1.4292347804
 H         -4.4582818845       -0.3254599158       -2.3887852517
 H         -6.6422956280       -1.5037070879       -2.4923327984
 H         -6.3878147160        0.1230310295       -3.1610882114
 H         -8.0081612746       -0.3938371804       -2.7101061904
 H         -7.8983271113       -0.8867642348        0.4018182637
 H         -7.9658146294        0.8897723986        0.4201117873
 H         -8.8351752459       -0.0072545380       -0.8194953094
 H         -6.1557254175        0.5350966446        1.4607750244
 H         -3.9237449149        0.7297659222        2.3847048192
 H          5.9444386092        2.5497860055       -1.6366654606
 H          5.4428854859        1.5486410470       -0.2759770325
 H          6.5931436174        0.9226456905       -1.4686121465
 H          6.8663403988        0.4159817641       -3.7162508876
 H          6.3757619012        2.0834972855       -3.9925902879
 H          6.0403013695        0.8510748532       -5.2144755740
 H          3.8956239962        0.0378271987       -5.3237751462
 H          0.8166902546       -1.3110017133       -4.1284471284
 H          0.6413640694        0.2964074068       -4.8358038027
 H          1.7555138540       -0.8615248707       -5.5607573848
 H          0.7781555658        0.9230207232       -0.9679210829
 H          0.1375748484        0.6296294180       -2.5925340377
 H         -1.5137558042       -2.6247706373        0.9212092642
 H         -2.1744666273       -4.7931545444        1.8188854658
 H         -0.8208819410       -9.1108058472        1.3057343622
 H         -1.0559736180       -8.8026217975       -0.4241529912
 H          0.3660606713       -8.1535069646        0.4210891083
 H         -3.3266865813       -6.6408279613        1.5429633188
 H         -2.8930976123       -8.3362660981        1.7588451924
 H         -2.2009631962       -7.1092256867        2.8361217652
 H          0.1290464835       -6.7321860250       -1.2457930897
 H          0.7934298244       -4.5560198134       -2.1066197198
 H          4.8393531172       -0.3757168174        1.6050057434
 H          5.5983377146        0.2878638018        3.0554226289
 H          3.9614147212       -0.3635955671        3.1270787905
