  74
        -85.43096371
 C          9.3663342952       -0.9854303258       -0.4091814131
 C          8.2470968619       -0.1932989151        0.2646333010
 C          8.6812396756        1.2585244609        0.4519862179
 C          6.9607413273       -0.3019368034       -0.5612246367
 C          5.7327915270        0.2827565444        0.1333844730
 C          4.4520905418       -0.0139563100       -0.6457996752
 C          3.1976658217        0.5771412009        0.0225912390
 C          3.1182649950        2.0681266264       -0.3045034087
 C          1.9407678916       -0.1870826652       -0.4285714518
 C          2.0194385126       -1.6936628071       -0.0672940820
 C          0.5928156064       -2.1591620194        0.2708607098
 C         -0.2751277486       -0.9930727919       -0.1887559588
 C         -1.7132661871       -0.9389553544        0.3139488775
 C         -2.4681712005       -2.1916773620       -0.1280729160
 C         -3.9452736540       -2.0340573091        0.0095820234
 C         -4.5767402947       -0.8816821570        0.1810550531
 C         -6.0730945573       -0.8552842540        0.3343844560
 C         -6.7224521585        0.1277490849       -0.6450150318
 O         -8.1277154528        0.1410043916       -0.5239161038
 C         -6.1073430781        1.5096481948       -0.4337039093
 C         -4.6012868971        1.4562517311       -0.6618925279
 C         -3.8608053506        0.4541162911        0.2498888036
 C         -3.8926151201        0.9536164409        1.7029918706
 C         -2.4050538815        0.3016406039       -0.2728232325
 C         -1.5634080315        1.5666532781       -0.0565930774
 C         -0.1145565629        1.4285035523       -0.5332230809
 C          0.5706698097        0.2469582886        0.1550366939
 C          0.6893052881        0.4857254658        1.6621486496
 H          9.5719681168       -0.5823499256       -1.3984603723
 H          9.0876740797       -2.0311551733       -0.5169958729
 H         10.2801397947       -0.9338103717        0.1783412895
 H          8.0596977279       -0.6307449985        1.2522448453
 H          8.8255787016        1.7383010723       -0.5138114750
 H          9.6199634869        1.3032699632        0.9998347215
 H          7.9388548466        1.8222048066        1.0106672080
 H          7.1075312945        0.2000724456       -1.5203673424
 H          6.7711687591       -1.3585469470       -0.7688579252
 H          5.6482559877       -0.1495801565        1.1337721115
 H          5.8557626682        1.3601242347        0.2468024493
 H          4.3559584572       -1.0957865433       -0.7307582192
 H          4.5392723661        0.3867968870       -1.6582104403
 H          3.3093823852        0.4614589387        1.1049697374
 H          2.8120534072        2.2134406592       -1.3381730924
 H          4.0899790474        2.5366680021       -0.1690692398
 H          2.4144566598        2.5831206500        0.3417703028
 H          1.8764874711       -0.0913697000       -1.5185223927
 H          2.6862111869       -1.8455296219        0.7816943036
 H          2.4151804432       -2.2678619840       -0.9044565200
 H          0.3407230511       -3.0874933483       -0.2400657901
 H          0.4720119534       -2.3241655500        1.3418130554
 H         -0.3255938611       -1.0376236300       -1.2844534091
 H         -1.7285428997       -0.8960385769        1.4052955602
 H         -2.2347091456       -2.4110677794       -1.1763994283
 H         -2.1403817730       -3.0540220905        0.4575501322
 H         -4.5163177789       -2.9522934432       -0.0490658771
 H         -6.3423792751       -0.5542962465        1.3530573202
 H         -6.4809834819       -1.8541754217        0.1703791521
 H         -6.5367936192       -0.2048356476       -1.6720086203
 H         -8.3546399276        0.4250432743        0.3691974426
 H         -6.3296435899        1.8547745540        0.5794518870
 H         -6.5583341257        2.2185349315       -1.1316539101
 H         -4.1886947027        2.4548727429       -0.5112799362
 H         -4.4247864473        1.1747313249       -1.7029193948
 H         -3.5798467831        1.9927144834        1.7649192261
 H         -3.2416625795        0.3500895235        2.3299246241
 H         -4.8958763031        0.8853460786        2.1128076904
 H         -2.4748369667        0.1321920454       -1.3547931705
 H         -1.5514242162        1.8285429596        0.9994717911
 H         -2.0189572477        2.3978252161       -0.5977178857
 H         -0.1004193543        1.2704599164       -1.6146035739
 H          0.4013075822        2.3663924329       -0.3297284218
 H          1.1651481882        1.4441278038        1.8548062015
 H          1.2855235440       -0.2899686589        2.1320043866
 H         -0.2834718790        0.4958506113        2.1427328287
