85
 energy: -126.424721498962 gnorm: 0.000116646913 xtb: 6.7.1 (edcfbbe)
C           -7.38028196800665       -4.86319799358060        0.95058495810856
C           -6.64839733552692       -3.58290462043291        0.68353090313676
C           -7.13378795085416       -2.67890399421158       -0.25600705434113
C           -6.47474991585395       -1.49678605401496       -0.52002213427676
C           -5.30277397201264       -1.17498822729245        0.16705465894624
N           -4.60888941159516        0.00868138487148       -0.08900912895801
C           -5.25668507915858        1.18297553596923       -0.47521976310769
C           -6.54454537068398        1.48643311170158       -0.03274883171337
C           -7.15588503824642        2.66153649561126       -0.42031486890178
C           -6.50794647981619        3.57501916461198       -1.24296102079278
C           -7.18456790430610        4.84080368498836       -1.67407824561393
C           -5.22035127080507        3.27367423649535       -1.66961054292785
C           -4.60085384328943        2.09765410804251       -1.29901215954665
C           -3.20561471124343        0.02002594680134        0.04978108537987
C           -2.42123998161953       -0.84505876637673       -0.73416646074039
C           -2.98931024475787       -1.70350440593876       -1.70986827068938
C           -2.21578768847994       -2.55235791522315       -2.44071643310984
C           -0.82472930515541       -2.60588138633252       -2.22979433140117
C           -0.23703108900139       -1.77479503561459       -1.32671947213615
C           -1.00120755596078       -0.84619478306573       -0.57217756133850
C           -0.39701454284251        0.05250749182782        0.31859215025514
C            1.07424947370113        0.07317444311648        0.45236417152837
C            1.86818257405024        0.52439557622958       -0.59972143372933
C            3.24484177547100        0.54402036579887       -0.48516356061887
C            3.84623904034188        0.10553876636516        0.68721816840485
P            5.64933967398163        0.05017441670600        0.93517322329866
O            6.04878879109140        0.15986665217721        2.34282588402898
C            6.32406310238652        1.37905878929500       -0.11467658351187
C            6.54957929664328        1.23714710760957       -1.47719972952141
C            7.05008782573162        2.30330257080799       -2.20310296399339
C            7.32576102831407        3.50665966213716       -1.57338370384697
C            7.10818959355342        3.64602975060233       -0.21215975685755
C            6.60812991302236        2.58203721231465        0.51633725832691
C            6.19515042832133       -1.50096986231611        0.14684521169444
C            7.35467555681399       -2.07348122554394        0.65078708444342
C            7.84951663246160       -3.24009436052502        0.09688973511893
C            7.18295438013518       -3.83657351095095       -0.96130301120456
C            6.02038233846512       -3.27061782554821       -1.45969621785374
C            5.52356564056249       -2.10283076899771       -0.90849911696743
C            3.06156735748739       -0.33774384265144        1.74331670540904
C            1.68528520607407       -0.35287070346004        1.62920167698753
C           -1.17932419157994        0.93265235180502        1.07983820753937
C           -0.59333103154021        1.87443380458981        1.96593576599449
C           -1.36133931346196        2.68863391669091        2.73996875608949
C           -2.76555473375670        2.60365996373814        2.68187202123139
C           -3.36672779838890        1.74021752866943        1.81806104973199
C           -2.60387356595385        0.89837350679538        0.96899905182052
C           -4.81012332466588       -2.07894864288967        1.10662058637539
C           -5.47525545216036       -3.26407813952750        1.35311102610996
H           -8.39127859726092       -4.65819353742942        1.30160857455662
H           -6.86565934603095       -5.45526507919017        1.70306269837059
H           -7.45958769972889       -5.45382153981254        0.03833105711254
H           -8.03933183706566       -2.91251807379725       -0.79804510598247
H           -6.85674636538779       -0.82057611532546       -1.27107564445688
H           -7.05760991924344        0.80346555961644        0.62870808899718
H           -8.15336610628384        2.87880795050460       -0.06508235893386
H           -6.46214356744554        5.64599326996247       -1.78855378277055
H           -7.67841548876431        4.69373010445912       -2.63565589928752
H           -7.93882001578378        5.14330085023183       -0.95127720775689
H           -4.69489074469731        3.96927709212853       -2.30840226700337
H           -3.60117297469215        1.87835406590946       -1.64488544043402
H           -4.05465306487800       -1.67388894048397       -1.87593272662917
H           -2.66540490076346       -3.19482035631593       -3.18319555489947
H           -0.22902633494613       -3.30728526166429       -2.79546021101164
H            0.83011972888106       -1.81386874982642       -1.16565404993913
H            1.39435149198442        0.86786370379544       -1.50855345977141
H            3.85215472588437        0.91026439649246       -1.30114719521869
H            6.34666576029914        0.29319143139572       -1.96373338630203
H            7.22874507989792        2.19521208219408       -3.26328721362481
H            7.71699853525383        4.33529554561923       -2.14535350460344
H            7.33020497006595        4.58226674733585        0.27867102540253
H            6.44052023212776        2.65972454477385        1.58114712060686
H            7.84829064387535       -1.59419847873779        1.48418789566928
H            8.75213869233477       -3.68565377312162        0.48858180017563
H            7.56631246016644       -4.74813782260093       -1.39596934318137
H            5.49847290978850       -3.74263348314456       -2.27973108308712
H            4.61100163708819       -1.66528213819161       -1.28884060163494
H            3.55046473845790       -0.65872938625681        2.65207538375176
H            1.07231358683463       -0.70116714274649        2.44811211502294
H            0.48364755282841        1.93577213028883        2.01458998958671
H           -0.89974701832884        3.39925213082485        3.40957255434192
H           -3.36270001396742        3.23294589557452        3.32494966999118
H           -4.44325928762326        1.68520863383728        1.77923323953655
H           -3.90196876336225       -1.84522609287143        1.64295163400633
H           -5.07545630102493       -3.94954913405717        2.08678772182791
