85
 energy: -126.367021313478 gnorm: 0.000134394143 xtb: 6.7.1 (edcfbbe)
C           -7.84370638537903       -4.36347437136111        1.26391768623067
C           -6.98581507800636       -3.18325089509201        0.92753463180053
C           -7.45427611713441       -2.19395184319093        0.06742184066565
C           -6.68457724641589       -1.09397391186689       -0.24496968478404
C           -5.41079515429469       -0.94621520617333        0.31074038455781
N           -4.60282057902206        0.14781817547525        0.00875572528747
C           -5.14432871372381        1.40113834017933       -0.26860829163008
C           -6.32938304061679        1.83835245378236        0.32667880677274
C           -6.83246268126463        3.09017736311435        0.03662878240508
C           -6.17544556731274        3.94620455439216       -0.83954288693813
C           -6.71122126124761        5.31188186950414       -1.13978760578797
C           -4.98882302425933        3.50920188824004       -1.42071025777473
C           -4.47751932735457        2.25927141289804       -1.14637456396787
C           -3.21214120229144       -0.01315473722256       -0.01394940902453
C           -2.63195102140341       -0.99251064998470       -0.88269143047603
C           -3.40172613083182       -1.74446526939340       -1.77302439000720
C           -2.81716891695494       -2.63908939388243       -2.66309896161008
C           -1.44545877864994       -2.76920639264681       -2.70661981032818
C           -0.65289219944064       -2.00512629360831       -1.85813137302181
C           -1.21340058582150       -1.13213245444821       -0.92020188369918
C           -0.39560685472714       -0.31996744036011       -0.07526416705384
C            1.05780358946828       -0.46789788514529       -0.11292700211502
C            1.87651377618794        0.62586455334229       -0.41588735106202
C            3.24865477568118        0.49625675028412       -0.45467994569873
C            3.83827007761775       -0.73214587331248       -0.17638424380132
P            5.63525574784575       -1.00270745638682       -0.15457154429004
O            6.02284325555312       -2.39679489075486       -0.40025347179034
C            6.20917034221215       -0.36958910735996        1.45758265586167
C            5.54899742940569        0.61914596486791        2.17401563619273
C            6.06736372464014        1.05269142998969        3.38140995431259
C            7.24010119152261        0.50277886492113        3.87369994544567
C            7.89526418212805       -0.48980904476781        3.16281112916281
C            7.37898785768391       -0.92571963694174        1.95616228856674
C            6.31541364557234        0.16288105739236       -1.38124777576261
C            6.56241465689436        1.50169521434117       -1.10963829826406
C            7.06445158093732        2.32129161172493       -2.10483679779067
C            7.32057544529261        1.80842505383129       -3.36648947638114
C            7.08111403028992        0.47058700549092       -3.63584027433447
C            6.57899689352686       -0.35105672944459       -2.64310085469001
C            3.03651673299615       -1.82799596564312        0.12071866546414
C            1.66393458566329       -1.70160090655511        0.14730522439802
C           -0.98339778607556        0.63913218859204        0.80635176135120
C           -0.20935471362840        1.36161498756311        1.71999269564203
C           -0.78207306793119        2.26898387562982        2.60354893395968
C           -2.15014413175089        2.43758599647387        2.61918434303762
C           -2.95045109821288        1.69913158826929        1.75417616263739
C           -2.39866170665310        0.80823002037316        0.83060418448230
C           -4.93412106605637       -1.93777413014083        1.16974359628535
C           -5.71366382821568       -3.03645720264368        1.46726373926257
H           -8.64798027735451       -4.06399353203339        1.93670491107463
H           -7.26182373505974       -5.14115698504819        1.75182352631409
H           -8.29951304931696       -4.77580048188665        0.36547173665647
H           -8.43563766958315       -2.29591839951710       -0.37348308746834
H           -7.05427882829777       -0.35298840241556       -0.93881033794243
H           -6.84078053073395        1.19999118377794        1.03242710113107
H           -7.74941046658752        3.41210574946308        0.50927915269891
H           -6.65415666780318        5.52131698827197       -2.20637298323256
H           -7.74519213604790        5.40512401895263       -0.81732071816729
H           -6.12133178411906        6.06808032276235       -0.62089260797255
H           -4.46327935769816        4.15857716613541       -2.10589990805783
H           -3.56277571866790        1.92650834744343       -1.61420109251519
H           -4.47459203645562       -1.63471999387550       -1.78472362195542
H           -3.44615991619791       -3.21732653688845       -3.32343185095761
H           -0.97925777515433       -3.44858010432631       -3.40432705888157
H            0.42065363231066       -2.07430578142489       -1.94170794390047
H            1.41716803676796        1.57633229022326       -0.64836735409577
H            3.86583275985591        1.34482586556444       -0.71587054769479
H            4.62843194375673        1.03919828360151        1.79350250382295
H            5.55413073494516        1.82085391898725        3.94202556639443
H            7.64018483055195        0.84527345650503        4.81690001451805
H            8.80584529903332       -0.92253626709407        3.55072967511149
H            7.86388352199261       -1.70647329068420        1.38762493443967
H            6.37553985595183        1.89642117856604       -0.12054811535604
H            7.25966567898606        3.36334663413023       -1.89565889570226
H            7.71295362434148        2.45315706869270       -4.13938191298285
H            7.28730082961965        0.07058349282471       -4.61786416912853
H            6.39419671788211       -1.40059609949551       -2.82276482173577
H            3.51338714930085       -2.77649758142624        0.32328762834882
H            1.04425714395098       -2.55078688270537        0.39731598711811
H            0.85636097810179        1.19596538740355        1.75677907309254
H           -0.15214238291768        2.82435312999896        3.28243763658894
H           -2.61142668327825        3.13032502711490        3.30726291347927
H           -4.02034783626779        1.82195897615938        1.81263664420648
H           -3.95132451424772       -1.83022169638527        1.60428919842829
H           -5.32830729511601       -3.79123349275569        2.13736093180725
