85
 energy: -126.424395913090 gnorm: 0.000041530386 xtb: 6.7.1 (edcfbbe)
C           -6.91579981914047       -5.00742715107642        0.25733763225332
C           -6.22235964536489       -3.68090103992274        0.18249168115822
C           -6.70928076131252       -2.65951757326710       -0.62348110953962
C           -6.06043186927655       -1.44413488329367       -0.71082686150999
C           -4.89910937982061       -1.21092145447517        0.02593442802101
N           -4.21687788276946        0.00403177289009       -0.05033521518236
C           -4.87197170337589        1.21581647067292       -0.27364101825636
C           -6.16822659394664        1.44253194808308        0.18968634181453
C           -6.78666862268241        2.65573171814346       -0.03547593062414
C           -6.13839527895142        3.68170564008771       -0.71223726852313
C           -6.80515507229971        5.00621956303913       -0.92936508182329
C           -4.84243449086421        3.45493115764818       -1.15934839580837
C           -4.21555611454975        2.24349387126105       -0.95088876836900
C           -2.81515301672685        0.00910153393649        0.10734597363604
C           -2.01117494861948       -0.72086272472645       -0.78657482260533
C           -2.55768830047288       -1.42892049912866       -1.88732437721520
C           -1.76220009090807       -2.12227776481778       -2.74729555032506
C           -0.36672510016645       -2.14801488829145       -2.56173729880560
C            0.19937340650561       -1.46084680343732       -1.53279200882536
C           -0.59230166097424       -0.72195352399578       -0.61474553835670
C           -0.01141366362781        0.02877926720836        0.41656623624895
C            1.45870335865027        0.04448876969353        0.57512257098859
C            2.19028840267353        1.17880083897071        0.23604083997511
C            3.56599205135657        1.19697319012263        0.37685977567605
C            4.22427073389845        0.07628803778096        0.85875393252010
P            6.02007289078772        0.02744498887854        1.17000898490889
O            6.35942112506478        0.03322961551339        2.59865326585983
C            6.74221703773180        1.42308090034893        0.25250373222287
C            6.61587513576524        1.55875641989925       -1.12427424952802
C            7.20038178700396        2.63709352397750       -1.76182472985928
C            7.91193590049885        3.57629505300904       -1.03045473675316
C            8.04192908710714        3.43858699385798        0.34160426217450
C            7.45760594454722        2.36050621204941        0.98280766914947
C            6.60137029625882       -1.46083044873929        0.29440386588865
C            7.70389449815214       -2.10914719851657        0.83236124002115
C            8.21989504689793       -3.23197300721666        0.21090323654635
C            7.63260534771819       -3.70644172083865       -0.95069939018850
C            6.52834190046804       -3.06258318671433       -1.48657369699056
C            6.01103928648666       -1.93917955940090       -0.86759623018660
C            3.49957711132495       -1.05440509928219        1.21423938663989
C            2.12700737048929       -1.07377372069121        1.06899803464428
C           -0.81341661338219        0.76674673888832        1.29817603678752
C           -0.25032714855703        1.51104114980039        2.36794097451584
C           -1.03717369215385        2.18702718767102        3.24863900608771
C           -2.43896496142449        2.14366020845121        3.12412737019742
C           -3.01861362979087        1.44304730794121        2.11099929058565
C           -2.23532179433680        0.74587740491001        1.15604560448824
C           -4.40333312150118       -2.23478870946802        0.83346392803557
C           -5.05652703688377       -3.44801620346085        0.90258040193560
H           -7.95165491872635       -4.92351197357397       -0.06252437572901
H           -6.89085328957546       -5.39917328102206        1.27225865165987
H           -6.41721176833105       -5.72882904245911       -0.39133967186177
H           -7.60795499879367       -2.81948744321376       -1.20240913509631
H           -6.44513962160974       -0.67227462613018       -1.36155023888799
H           -6.68335560621276        0.66746431380174        0.73838780173634
H           -7.79115223643623        2.81139842902879        0.33207371440781
H           -6.49155121604597        5.44717141710669       -1.87317897171083
H           -7.88755649119823        4.90091868888794       -0.93135135609167
H           -6.53424317626766        5.69746837952111       -0.13009884316515
H           -4.31729739904152        4.23806203491957       -1.68759541130006
H           -3.21077759291009        2.08252653154474       -1.31370121802711
H           -3.62409184895494       -1.40493441347130       -2.04730782202345
H           -2.19636870461726       -2.65142269134835       -3.58260291626996
H            0.24970080707186       -2.70647501541895       -3.25093917069268
H            1.27125041033183       -1.46288587336002       -1.40080824522041
H            1.67170168321973        2.04838968927159       -0.14217243702067
H            4.12994779023871        2.08085303283644        0.11219318230302
H            6.06212344563258        0.82313663649193       -1.68953630900525
H            7.10314487288848        2.74762668365333       -2.83220890772675
H            8.36713172664394        4.41644734883888       -1.53429134292597
H            8.59821065111504        4.17007661922378        0.90923396026783
H            7.54323711533977        2.22584375282043        2.05154650435542
H            8.13442611634063       -1.72468936953016        1.74612414257333
H            9.07674069946806       -3.73834335093391        0.63057322358654
H            8.03206248097331       -4.58377022108722       -1.43811353226273
H            6.06828874311357       -3.44027251907755       -2.38835827222648
H            5.14057848066691       -1.44360872016957       -1.27498400279822
H            4.02870334856973       -1.91349885958896        1.60586594623261
H            1.55966808755683       -1.95204351973837        1.34205318517993
H            0.82386503053583        1.52412645187070        2.47703778075943
H           -0.59312847694530        2.74859163050982        4.05723416172731
H           -3.05213786546314        2.66394257918468        3.84492295178345
H           -4.09383663809753        1.40373479190232        2.03500172258870
H           -3.50354555066810       -2.06880136863474        1.40784355649800
H           -4.65811879531334       -4.22812604664511        1.53561927068874
