  85
       -126.36249944
 C         -7.9116124361       -4.3345070764        1.2365208432
 C         -7.0348241461       -3.1655001942        0.9105996733
 C         -7.4835876739       -2.1682165025        0.0486735268
 C         -6.6959396329       -1.0797431376       -0.2578724221
 C         -5.4227131096       -0.9520658310        0.3052143205
 N         -4.5976251756        0.1294337275        0.0080854410
 C         -5.1219932739        1.3901038571       -0.2678616569
 C         -6.3003927639        1.8433979623        0.3294884617
 C         -6.7822645954        3.1048965857        0.0466192680
 C         -6.1111833675        3.9544698602       -0.8255650191
 C         -6.6218760423        5.3319704298       -1.1140211150
 C         -4.9334831204        3.4998653369       -1.4118056101
 C         -4.4424001084        2.2407543677       -1.1434205085
 C         -3.2094875464       -0.0460035983       -0.0065579557
 C         -2.6335279933       -1.0347852089       -0.8645560250
 C         -3.4059631440       -1.7953851053       -1.7470168131
 C         -2.8249210505       -2.6986178464       -2.6295287648
 C         -1.4524499195       -2.8301094884       -2.6758140783
 C         -0.6575736218       -2.0584592507       -1.8379592681
 C         -1.2140764100       -1.1765286185       -0.9039645574
 C         -0.3935155526       -0.3562735725       -0.0729089122
 C          1.0581160347       -0.4929323763       -0.1210925160
 C          1.8657935257        0.6118047861       -0.4202672744
 C          3.2382866840        0.4973057064       -0.4666071245
 C          3.8431089721       -0.7261110202       -0.1959496640
 P          5.6422180450       -0.9747685547       -0.1659166270
 O          6.0483041000       -2.3644308853       -0.4064472809
 C          6.1964640443       -0.3343863045        1.4504473170
 C          5.5410504269        0.6755966052        2.1414882978
 C          6.0413042967        1.1122138612        3.3552425386
 C          7.1902978247        0.5429404935        3.8805875122
 C          7.8395053543       -0.4716940135        3.1960608478
 C          7.3420340376       -0.9096326409        1.9821824425
 C          6.3190695304        0.1950629478       -1.3909925955
 C          6.5492583569        1.5379806728       -1.1250358656
 C          7.0532455097        2.3569596721       -2.1198512215
 C          7.3286095871        1.8395523300       -3.3754929463
 C          7.1060568116        0.4976615760       -3.6392203499
 C          6.6016753347       -0.3231632326       -2.6470195968
 C          3.0535073341       -1.8326688631        0.0965142507
 C          1.6801811463       -1.7225642175        0.1267918256
 C         -0.9783981786        0.6039715899        0.8065633193
 C         -0.2019222726        1.3253159072        1.7211430734
 C         -0.7713629420        2.2324694703        2.6054754537
 C         -2.1401426600        2.4032501683        2.6234768174
 C         -2.9425371293        1.6667745333        1.7601044484
 C         -2.3940057254        0.7742862667        0.8342906470
 C         -4.9661075259       -1.9512980894        1.1667543231
 C         -5.7640577541       -3.0379772223        1.4587868353
 H         -8.7467354506       -4.0163884186        1.8610680615
 H         -7.3562363142       -5.1010287983        1.7706166230
 H         -8.3248427552       -4.7686279680        0.3275787154
 H         -8.4635293142       -2.2556672656       -0.3983787845
 H         -7.0497515238       -0.3326176278       -0.9534520820
 H         -6.8211451190        1.2102875760        1.0331463597
 H         -7.6927269479        3.4403676617        0.5223058043
 H         -6.5469509418        5.5555224677       -2.1765148732
 H         -7.6584184149        5.4370812593       -0.8036720390
 H         -6.0272898640        6.0712916610       -0.5763402567
 H         -4.3987387692        4.1432101321       -2.0955011878
 H         -3.5345373431        1.8941260117       -1.6144563709
 H         -4.4788036620       -1.6851862940       -1.7576325475
 H         -3.4559477993       -3.2826751409       -3.2827663640
 H         -0.9891090362       -3.5161484545       -3.3689013717
 H          0.4155138503       -2.1262287834       -1.9268448042
 H          1.3950472370        1.5583545613       -0.6459626685
 H          3.8448145036        1.3533560978       -0.7285706448
 H          4.6371421602        1.1098248681        1.7366974607
 H          5.5321687711        1.8977744500        3.8953870972
 H          7.5760562037        0.8876851657        4.8289299702
 H          8.7309360001       -0.9198605559        3.6098969128
 H          7.8226312680       -1.7068071400        1.4334554322
 H          6.3484744682        1.9371411984       -0.1405938045
 H          7.2354476980        3.4021707210       -1.9147731781
 H          7.7236786720        2.4835593624       -4.1476522265
 H          7.3278298377        0.0937194908       -4.6162627882
 H          6.4300911288       -1.3756849380       -2.8223651189
 H          3.5416966434       -2.7764015344        0.2944196133
 H          1.0714981544       -2.5797007100        0.3766836127
 H          0.8631783416        1.1559939242        1.7578355163
 H         -0.1400014649        2.7859817608        3.2845480083
 H         -2.5989339095        3.0961115649        3.3131225066
 H         -4.0120911621        1.7910167806        1.8214877141
 H         -3.9846292855       -1.8579799948        1.6073993039
 H         -5.3946604326       -3.7985382932        2.1312421988
