  85
       -126.42465849
 C         -7.4475927694       -4.8463816498        0.9184414168
 C         -6.6976183197       -3.5741581043        0.6632286066
 C         -7.1608922995       -2.6626282960       -0.2801367493
 C         -6.4840675065       -1.4884602059       -0.5346860166
 C         -5.3159938747       -1.1825363045        0.1662202539
 N         -4.6049401808       -0.0073058028       -0.0788753802
 C         -5.2315100162        1.1749084776       -0.4765635163
 C         -6.5209764781        1.4973053073       -0.0526781079
 C         -7.1107279261        2.6794896571       -0.4520825140
 C         -6.4390900259        3.5814608630       -1.2685146877
 C         -7.0924158936        4.8545492528       -1.7137983659
 C         -5.1498304844        3.2614991699       -1.6760688900
 C         -4.5516844667        2.0783426310       -1.2932961687
 C         -3.2033746239       -0.0090163519        0.0781885970
 C         -2.4139507506       -0.8727285281       -0.7017914008
 C         -2.9753281591       -1.7324325447       -1.6802688369
 C         -2.1960616154       -2.5784586238       -2.4082457738
 C         -0.8056473388       -2.6270664576       -2.1920348297
 C         -0.2242647368       -1.7942054586       -1.2864995191
 C         -0.9945338216       -0.8689826022       -0.5339937733
 C         -0.3964304719        0.0312251608        0.3596180644
 C          1.0751473282        0.0698828925        0.4834511942
 C          1.8528606378        0.5292129864       -0.5773714309
 C          3.2301009386        0.5680009904       -0.4764006859
 C          3.8486658525        0.1408164740        0.6912037701
 P          5.6548064671        0.0918042560        0.9176042078
 O          6.0719036890        0.2122369672        2.3191929626
 C          6.3240165276        1.4086584268       -0.1509127136
 C          6.5176718076        1.2605856853       -1.5178395040
 C          7.0231499291        2.3157329390       -2.2562455094
 C          7.3365567647        3.5141453281       -1.6347238602
 C          7.1511402385        3.6595257520       -0.2693266267
 C          6.6455908780        2.6066941144        0.4715971952
 C          6.1824365747       -1.4697221109        0.1373213433
 C          7.3302372373       -2.0590529776        0.6482028904
 C          7.8064732652       -3.2374208778        0.1027474215
 C          7.1333529072       -3.8282888908       -0.9543086915
 C          5.9825036572       -3.2451267193       -1.4599996585
 C          5.5038533823       -2.0662964444       -0.9166342939
 C          3.0802182811       -0.3094938117        1.7562679987
 C          1.7031908675       -0.3435000919        1.6558897212
 C         -1.1850249647        0.9006892527        1.1268120984
 C         -0.6075993281        1.8369680404        2.0242287022
 C         -1.3830579988        2.6393315877        2.8032472693
 C         -2.7865935305        2.5497161918        2.7370942969
 C         -3.3796870930        1.6934789959        1.8606752796
 C         -2.6087384454        0.8621065808        1.0086718927
 C         -4.8450610181       -2.0944855150        1.1093150371
 C         -5.5277939885       -3.2715367247        1.3461335794
 H         -8.4713329064       -4.6314285342        1.2229267404
 H         -6.9681034785       -5.4299166029        1.7001954051
 H         -7.4911667373       -5.4502807602        0.0123912055
 H         -8.0631129852       -2.8839155254       -0.8328275251
 H         -6.8489232784       -0.8063444980       -1.2888876625
 H         -7.0525331741        0.8232337373        0.6033253582
 H         -8.1100023750        2.9114518517       -0.1115025393
 H         -6.3574431111        5.6491551740       -1.8222280316
 H         -7.5755202807        4.7099254035       -2.6812012800
 H         -7.8518292123        5.1706970027       -1.0023821731
 H         -4.6060968995        3.9477486363       -2.3097201146
 H         -3.5504464944        1.8445337291       -1.6249632734
 H         -4.0403077678       -1.7073122012       -1.8493931182
 H         -2.6406280489       -3.2227933556       -3.1521375722
 H         -0.2053868083       -3.3264968537       -2.7553210648
 H          0.8422896912       -1.8303952442       -1.1207749681
 H          1.3654715699        0.8631059065       -1.4824162836
 H          3.8241423265        0.9402601577       -1.2990925695
 H          6.2874302962        0.3199856089       -1.9984736386
 H          7.1770530884        2.2025735806       -3.3197733749
 H          7.7324848865        4.3337912399       -2.2163613417
 H          7.4024700028        4.5916770446        0.2151270173
 H          6.5024257061        2.6893273891        1.5393787543
 H          7.8293559243       -1.5834616650        1.4805056005
 H          8.6997164156       -3.6966392396        0.5005638475
 H          7.5020439754       -4.7489979117       -1.3823020503
 H          5.4549030464       -3.7127987336       -2.2790928150
 H          4.5984673843       -1.6168215891       -1.3011554178
 H          3.5823367233       -0.6213963783        2.6612158996
 H          1.1031766413       -0.6981382918        2.4818979176
 H          0.4687167261        1.9030469906        2.0789825883
 H         -0.9277288390        3.3442958083        3.4829453806
 H         -3.3894247523        3.1696148294        3.3839953700
 H         -4.4557607773        1.6343551449        1.8149343726
 H         -3.9401070824       -1.8729320267        1.6561304830
 H         -5.1454436072       -3.9629424359        2.0836216240
