80
 energy: -123.060402272313 gnorm: 0.000064679943 xtb: 6.7.1 (edcfbbe)
C            7.88340426757413       -2.25301273210253        2.05085174993751
C            6.57971563495489       -2.31397834297712        2.51665262016592
C            5.57358140552493       -1.62089732205831        1.87348329476800
C            5.86086894952118       -0.85513188035574        0.74215973642836
N            4.84349450777524       -0.15872637841148        0.08516558638391
C            5.09839444512652        1.09869521279183       -0.46632121589257
C            4.48484319262889        1.48487269265313       -1.65942053062813
C            4.73540179223380        2.73098413162496       -2.19823005489215
C            5.60162974583895        3.60879359726940       -1.56582427861617
C            6.21537195482077        3.22992688103066       -0.38266864288520
C            5.96696774439548        1.98848721914440        0.16855531474177
C            3.56733229628229       -0.72120645775126       -0.01811298531421
C            3.43647217375603       -2.10945873229264       -0.22416317955529
C            2.19421465841575       -2.69943569018272       -0.33712135136203
C            1.06627641343219       -1.90341561774709       -0.24301628612828
C            1.18196338736057       -0.47373560958862       -0.02954949108198
C            2.44075591056347        0.09259890345543        0.08025885121837
C           -0.14938212157091        0.06740004902679        0.01627689217086
C           -0.86181836988183        1.27114127243237        0.17595878301527
C           -2.26181411395439        1.20963065808385        0.12091106230606
N           -2.97519807065344        2.41219044163869        0.27263545578498
C           -2.50841678139035        3.57760013501113       -0.33268918546077
C           -2.65669794983195        4.81589616012848        0.29592007480685
C           -2.19017395898803        5.96463478194024       -0.31187501776920
C           -1.56516246856766        5.90175647009741       -1.54704042524631
C           -1.41048482140615        4.67493128511533       -2.17339555068827
C           -1.87763533484475        3.52082324864184       -1.57759500682284
C           -4.14513119121027        2.42895422531295        1.03033166183561
C           -4.26320289631053        1.61599471706816        2.16021849535834
C           -5.42755402337473        1.62115166074189        2.90166384580053
C           -6.48832466798750        2.43584013856610        2.53831680553426
C           -6.37654685382786        3.24602355099701        1.41943857818719
C           -5.21914665281928        3.24417902192180        0.66652572204367
C           -3.02182220346096        0.03452900810959       -0.07860279936751
C           -2.33979279105610       -1.18592746938585       -0.22548466395885
C           -2.52605551607327       -2.59051758990088       -0.43002973363627
C           -3.67496660541517       -3.40719599196408       -0.56162688125226
C           -4.98040412186953       -2.90090141189706       -0.50207497582130
C           -6.07541814024757       -3.73495602168744       -0.64271921682935
C           -5.89057434124720       -5.09483143292261       -0.84490107802339
C           -4.61195789049979       -5.62253815932944       -0.90337585881589
C           -3.48160315280704       -4.80712629349299       -0.76325782180309
C           -2.17262201411620       -5.35424356065955       -0.81820241342477
C           -1.04634837845891       -4.56661330053030       -0.67840394650159
C           -1.20905188956314       -3.20908413300483       -0.48624580949198
N           -0.26983873995844       -2.21303167505101       -0.31939315232653
C           -0.95582150641633       -1.04314839902575       -0.16675266827794
C            7.17490194532368       -0.80030638421103        0.27480272988880
C            8.17433887804836       -1.49271050865142        0.92924459880041
H            8.66732979322327       -2.79453539262020        2.55784093150946
H            6.34570449114240       -2.89974539491062        3.39322144798971
H            4.55974621133147       -1.65879182166052        2.24334382682817
H            3.81952039474214        0.79698162994618       -2.15972778101093
H            4.25713336751234        3.01593528817956       -3.12357285785291
H            5.79673160339829        4.58108782587217       -1.99175352102172
H            6.88658651839942        3.91023641873862        0.12036633456061
H            6.43513849771720        1.70147533325343        1.09870020608959
H            4.32840208654782       -2.71010306776790       -0.31287927337839
H            2.11027356304483       -3.76130589793138       -0.50989432367236
H            2.54959864035200        1.15285592934960        0.25453229613995
H           -0.36961113484992        2.21423130778598        0.35198252958698
H           -3.12767971682808        4.86592398340772        1.26671875059882
H           -2.30738111064761        6.91529618723617        0.18712209026464
H           -1.20041750067074        6.80209338515007       -2.01749227128012
H           -0.92904477701725        4.61786664037295       -3.13841843620058
H           -1.76720062575959        2.56658071772655       -2.07047040805875
H           -3.43295503560563        0.98921666982393        2.44924262984131
H           -5.50513937146301        0.98932043210745        3.77394277872505
H           -7.39639530126114        2.43810044650680        3.12165497127223
H           -7.20175916643298        3.87710621630056        1.12412886472815
H           -5.14235811416612        3.86172974223805       -0.21639722935737
H           -4.09476203658742        0.11675793018375       -0.13783116927647
H           -5.12581464772705       -1.84463508340200       -0.34055432772141
H           -7.07390642232936       -3.32535838978996       -0.59417031771374
H           -6.74595940245559       -5.74583942377154       -0.95555015235647
H           -4.47323092714445       -6.68315637272570       -1.05952748217873
H           -2.06872438403435       -6.41789488145399       -0.97045352937156
H           -0.06005474921245       -5.00416525719831       -0.71770239669455
H            7.40091390513378       -0.21992164453864       -0.60775006682204
H            9.18651064405112       -1.44559931069147        0.55558852150426
