  80
       -123.05793800
 C          7.8743894590       -2.2376469470        2.0511051317
 C          6.5709513573       -2.2949825351        2.5180407897
 C          5.5673040004       -1.5945914663        1.8790222080
 C          5.8569903861       -0.8251714964        0.7506166666
 N          4.8401695236       -0.1252504406        0.0965558493
 C          5.0974264561        1.1302121871       -0.4568567091
 C          4.4830592474        1.5171854533       -1.6493034157
 C          4.7408323622        2.7598211058       -2.1926731410
 C          5.6147753603        3.6336484550       -1.5654051980
 C          6.2277609766        3.2548831588       -0.3817272237
 C          5.9723425950        2.0170530801        0.1740807754
 C          3.5676330540       -0.6929719447       -0.0157556509
 C          3.4459268229       -2.0819976751       -0.2289244301
 C          2.2070026642       -2.6777983016       -0.3512265060
 C          1.0746723582       -1.8888865084       -0.2567918609
 C          1.1806961095       -0.4579211433       -0.0342951946
 C          2.4362666745        0.1146685082        0.0816892471
 C         -0.1540869227        0.0735101677        0.0124292581
 C         -0.8752773284        1.2691931932        0.1796121103
 C         -2.2775026933        1.1953094968        0.1253960269
 N         -2.9968067147        2.3918075182        0.2886233744
 C         -2.5328547405        3.5645600086       -0.3046305427
 C         -2.6777213882        4.7951624900        0.3395787890
 C         -2.2126660294        5.9506911910       -0.2564961874
 C         -1.5935794420        5.9018401362       -1.4953491137
 C         -1.4427602666        4.6825882517       -2.1373356362
 C         -1.9077457764        3.5217186601       -1.5530332657
 C         -4.1698728857        2.3978989082        1.0407627600
 C         -4.2931528667        1.5700848161        2.1594595906
 C         -5.4607628758        1.5659931683        2.8956607352
 C         -6.5196052226        2.3860408444        2.5384888996
 C         -6.4024846475        3.2112988922        1.4312478079
 C         -5.2418014265        3.2188951136        0.6834356346
 C         -3.0277182397        0.0169399569       -0.0808252065
 C         -2.3359799810       -1.1968201414       -0.2373520510
 C         -2.5099687672       -2.6033637451       -0.4508059344
 C         -3.6512691037       -3.4283619650       -0.5851524022
 C         -4.9623824726       -2.9340758855       -0.5215958184
 C         -6.0479901359       -3.7765214958       -0.6632552957
 C         -5.8513500410       -5.1361620871       -0.8714611987
 C         -4.5706697657       -5.6517170811       -0.9347836512
 C         -3.4459097001       -4.8260914586       -0.7933786805
 C         -2.1338462453       -5.3608610997       -0.8533145191
 C         -1.0159582682       -4.5643521573       -0.7104585818
 C         -1.1924409510       -3.2079579159       -0.5104619994
 N         -0.2590861280       -2.2050875033       -0.3379544533
 C         -0.9532364350       -1.0427725557       -0.1790123145
 C          7.1709237368       -0.7730997543        0.2827558316
 C          8.1678258529       -1.4728825212        0.9330737831
 H          8.6563193168       -2.7856033214        2.5542020989
 H          6.3352023778       -2.8839222957        3.3919642988
 H          4.5536080087       -1.6297531633        2.2492582519
 H          3.8126023651        0.8319928460       -2.1463459082
 H          4.2616926341        3.0451895592       -3.1175867420
 H          5.8157818685        4.6031185558       -1.9951518306
 H          6.9042240358        3.9325971945        0.1175711698
 H          6.4404477461        1.7299802002        1.1042493123
 H          4.3415727863       -2.6768477354       -0.3178162621
 H          2.1300397773       -3.7389896056       -0.5312846783
 H          2.5390873665        1.1744046801        0.2628660556
 H         -0.3921562974        2.2149560054        0.3655473334
 H         -3.1443251681        4.8335091848        1.3130404100
 H         -2.3267597037        6.8954503035        0.2541923803
 H         -1.2309807308        6.8075104724       -1.9570933241
 H         -0.9664241876        4.6370061742       -3.1054631885
 H         -1.8004734340        2.5730373973       -2.0571077062
 H         -3.4643933939        0.9392648577        2.4437447857
 H         -5.5428381719        0.9220132518        3.7585545291
 H         -7.4304801569        2.3804528674        3.1173716660
 H         -7.2259708807        3.8468762443        1.1409050869
 H         -5.1608831518        3.8483716457       -0.1906362631
 H         -4.1014228813        0.0905286467       -0.1383695702
 H         -5.1163035341       -1.8796548943       -0.3557044898
 H         -7.0506253014       -3.3776902698       -0.6105886046
 H         -6.7022415463       -5.7931101472       -0.9820356359
 H         -4.4217769244       -6.7103657689       -1.0952333918
 H         -2.0204534096       -6.4227212214       -1.0117307336
 H         -0.0251178334       -4.9913440418       -0.7525789563
 H          7.3985411169       -0.1901573779       -0.5976192388
 H          9.1797453484       -1.4286012349        0.5587199272
