80
 energy: -123.060402752392 gnorm: 0.000053459174 xtb: 6.7.1 (edcfbbe)
C            7.88624674369979       -2.22516909534214        2.05238439153907
C            6.58102967519734       -2.29440736098505        2.51271590807972
C            5.57420072178544       -1.60324852051319        1.86860322550649
C            5.86233498442175       -0.83098032064825        0.74190869414315
N            4.84409939917204       -0.13634591041202        0.08442778099936
C            5.09382667695309        1.12516181289073       -0.45971500126757
C            4.47925369032472        1.51503531771880       -1.65112652793098
C            4.72389234790694        2.76541564615421       -2.18267985462800
C            5.58525744535366        3.64396301465111       -1.54467628294416
C            6.20015593424286        3.26140045319119       -0.36331140517833
C            5.95758952334152        2.01565505286153        0.18074359639568
C            3.57073953275365       -0.70436885994055       -0.02418637456643
C            3.44731266556986       -2.09175943454189       -0.24009076525137
C            2.20818954952073       -2.68742070898394       -0.35759834433133
C            1.07612336682802       -1.89798896020480       -0.25791581967792
C            1.18419128200937       -0.46918380910479       -0.03466629288916
C            2.43999292232532        0.10297416755523        0.07920178356409
C           -0.15004823760443        0.06452541900425        0.01490171740711
C           -0.86899038621685        1.26322586930298        0.18290599823034
C           -2.26872159112868        1.19478510788023        0.12641760676913
N           -2.98870081920033        2.39229857291146        0.28482966223072
C           -2.52550304741453        3.56541563775550       -0.30825684798860
C           -2.68329025598333        4.79719570592791        0.33074090719184
C           -2.21937371187772        5.95369549741896       -0.26418976334146
C           -1.58778264550537        5.90512246659702       -1.49664670866412
C           -1.42432612842125        4.68490249113827       -2.13359655297197
C           -1.88881528127439        3.52314706918591       -1.55073197764434
C           -4.16224213092554        2.39721061559702        1.03740876359155
C           -4.28003010034906        1.57776907721977        2.16257318713786
C           -5.44774287119192        1.57164130013061        2.89873903497248
C           -6.51218747719170        2.38112903841231        2.53450854583276
C           -6.40073692219679        3.19757064864330        1.42015645574253
C           -5.23985174163268        3.20719385327293        0.67267020101338
C           -3.02229676604355        0.01685929681365       -0.08094090746773
C           -2.33369010484463       -1.19894838992213       -0.23493506418070
C           -2.51246130627351       -2.60327218598122       -0.44771309277019
C           -3.65715748982089       -3.42542825671191       -0.58158909976611
C           -4.96518072108071       -2.92660568060153       -0.51592501719226
C           -6.05592217927354       -3.76590281425999       -0.65819033845124
C           -5.86409082967914       -5.12362815769561       -0.86836628658666
C           -4.58278945614091       -5.64395501747931       -0.93318916662716
C           -3.45654616608689       -4.82311580897328       -0.79136999009185
C           -2.14468939803139       -5.36266252468121       -0.85206342568575
C           -1.02246959080024       -4.56975567287664       -0.70925208189932
C           -1.19227484027456       -3.21429938421375       -0.50880779494615
N           -0.25831688618927       -2.21419745054403       -0.33628740820116
C           -0.95048781932435       -1.04910260022548       -0.17576672400495
C            7.17787356173120       -0.76801963235839        0.27987946519436
C            8.17796741034269       -1.45864813715928        0.93522232052948
H            8.67073806436978       -2.76513347394450        2.56016011839965
H            6.34630104169121       -2.88517898135323        3.38572718076361
H            4.55908943899872       -1.64758056904912        2.23422574639025
H            3.81774821477977        0.82664376544198       -2.15578991801584
H            4.24484132796070        3.05320275944716       -3.10673987994537
H            5.77569897999041        4.61966852345176       -1.96487048710282
H            6.86759543042584        3.94220948103450        0.14405902278177
H            6.42646796148632        1.72585995306837        1.10966345335406
H            4.34250302544144       -2.68696993543039       -0.33258723336185
H            2.12978976644766       -3.74843414509660       -0.53804773614499
H            2.54342338847243        1.16254972407341        0.26077415129052
H           -0.38186618275060        2.20758515009693        0.36608852457145
H           -3.15948008419865        4.83600803852586        1.29951095628719
H           -2.34372292449005        6.89916959080945        0.24286357338030
H           -1.22476597543349        6.81144029465566       -1.95683453684172
H           -0.93790811816903        4.63903292232697       -3.09671657863102
H           -1.77149348474331        2.57401416139437       -2.05181478212878
H           -3.44699751677776        0.95491403993627        2.45207874032136
H           -5.52513061435606        0.93507228417806        3.76758098946043
H           -7.42288249034458        2.37455524600570        3.11371275421086
H           -7.22883881883296        3.82450742662878        1.12411485948081
H           -5.16289359848126        3.82968891639902       -0.20676631378545
H           -4.09558921379626        0.09371016372844       -0.14084817184651
H           -5.11587622358405       -1.87207202368851       -0.34806605188556
H           -7.05654618520653       -3.36219272223415       -0.60457516515029
H           -6.71622635376658       -5.77868139890654       -0.98018205781658
H           -4.43864370334296       -6.70291867825550       -1.09551459649958
H           -2.03524587869615       -6.42481948920696       -1.01072020978420
H           -0.03387880749792       -5.00172216762801       -0.75238780152073
H            7.40460497171352       -0.18270962906784       -0.59923098437375
H            9.19138065758537       -1.40515604796620        0.56580807175373
