  81
       -125.55317839
 Br        -4.7938933138        4.5187791618       -0.6301925172
 C         -3.8099276322        3.1844799449        0.3149118439
 C         -2.9976673314        3.5555058425        1.3727437046
 C         -2.2981883313        2.5725008342        2.0536893939
 C         -2.4196641029        1.2431806294        1.6941929518
 C         -3.2374714394        0.8870360859        0.6246181031
 N         -3.3896831576       -0.4584597007        0.2695984751
 C         -2.4062062261       -1.3937315021        0.0493338471
 C         -0.9780368145       -1.1362445411        0.0357806106
 C         -0.1182956188       -2.1751875764        0.3959344244
 C          1.2470742001       -1.9942023273        0.3771537339
 C          1.8011218479       -0.7705707658       -0.0003118105
 C          3.2546234743       -0.5780641247       -0.0153294277
 C          4.1030217414       -1.5861817922       -0.4720529418
 C          5.4692212380       -1.4098435289       -0.4964330315
 C          6.0391771549       -0.2187311247       -0.0424629867
 N          7.4226041619       -0.0441076737       -0.0529740084
 C          7.9753037179        1.2170925966       -0.3068695356
 C          7.3953196143        2.0710772970       -1.2446441397
 C          7.9467326839        3.3140339677       -1.4882303424
 C          9.0849085841        3.7221165988       -0.8120449371
 C          9.6682622283        2.8751955509        0.1163534153
 C          9.1193510463        1.6339385298        0.3732506888
 C          8.2696143740       -1.1347353278        0.1837522945
 C          9.4582416361       -1.2730669010       -0.5320726679
 C         10.2928624969       -2.3478485002       -0.2934994788
 C          9.9551461741       -3.3025312098        0.6519186172
 C          8.7743010481       -3.1707220614        1.3643333464
 C          7.9374368909       -2.0949363312        1.1390590621
 C          5.1946891351        0.7909826462        0.4229889389
 C          3.8277458652        0.6143194479        0.4251426085
 C          0.9390456449        0.2582751069       -0.3769281222
 C         -0.4290407520        0.0798214550       -0.3691821127
 N         -2.9278131598       -2.5663966557       -0.2022994080
 C         -4.2820955390       -2.4278804334       -0.1572048947
 C         -5.1494728056       -3.5787322149       -0.3572907487
 C         -6.4384175465       -3.6350279239        0.1693173227
 C         -7.2261963736       -4.7513670269       -0.0394885892
 C         -6.7403077085       -5.8263408660       -0.7657789435
 C         -5.4528727296       -5.7849093178       -1.2763002836
 C         -4.6614861452       -4.6715577668       -1.0728167844
 C         -4.5987431438       -1.1108013870        0.1260283913
 C         -5.8788267435       -0.4267527055        0.2597506130
 C         -6.8400381590       -0.5529880053       -0.7426256492
 C         -8.0448419180        0.1154609753       -0.6412718905
 C         -8.3063814895        0.9198211819        0.4566562251
 C         -7.3607641942        1.0428574895        1.4607930390
 C         -6.1540484259        0.3746276476        1.3666253809
 C         -3.9342092674        1.8656382348       -0.0776857213
 H         -2.9147064876        4.5923168758        1.6579083004
 H         -1.6625321347        2.8480355969        2.8808310310
 H         -1.8857297770        0.4755397124        2.2332013248
 H         -0.5494521035       -3.1197078262        0.6885748040
 H          1.8978332603       -2.8019942710        0.6776614406
 H          3.6814111988       -2.5074694832       -0.8459796074
 H          6.1089452301       -2.1935005084       -0.8747628314
 H          6.5147617869        1.7501150450       -1.7818981384
 H          7.4892221737        3.9645509663       -2.2191522656
 H          9.5149242512        4.6923847540       -1.0082089431
 H         10.5533937683        3.1861290872        0.6514359539
 H          9.5705195941        0.9782618984        1.1037524112
 H          9.7182998703       -0.5344344148       -1.2762999971
 H         11.2087230093       -2.4452750221       -0.8575450878
 H         10.6074255507       -4.1433128840        0.8322423908
 H          8.5062919114       -3.9063677765        2.1083967223
 H          7.0218258486       -1.9881621717        1.7023633019
 H          5.6219037016        1.7130260444        0.7892910501
 H          3.1929105424        1.4015643215        0.8052235111
 H          1.3491190147        1.2011353027       -0.7082760536
 H         -1.0688001441        0.8820020803       -0.7067465481
 H         -6.8185420255       -2.8105860334        0.7536246070
 H         -8.2243706815       -4.7852526455        0.3729239511
 H         -7.3607262452       -6.6957867343       -0.9264135554
 H         -5.0664529850       -6.6248336512       -1.8352716566
 H         -3.6555773502       -4.6249518984       -1.4601336577
 H         -6.6293927866       -1.1775009693       -1.5984505735
 H         -8.7810301802        0.0135638240       -1.4247053906
 H         -9.2453729633        1.4472411456        0.5303645338
 H         -7.5631088206        1.6618785516        2.3225287712
 H         -5.4253399310        0.4634061223        2.1603563771
 H         -4.5641012850        1.5950409607       -0.9103584844
