72
 energy: -111.586855858298 gnorm: 0.000068494420 xtb: 6.7.1 (edcfbbe)
N            1.94148774403806        4.40285632230180        3.29306156996607
C            1.04777725961747        3.76773409270659        2.94438214911649
C           -0.09720880270003        3.07142674558060        2.51689206723069
C           -1.27235952299076        3.56691264393008        3.10975705754102
N           -2.18922687170278        3.98492627056368        3.66531274148734
C           -0.06272680194986        2.02068473831574        1.62417715228615
C            1.20661959883924        1.42915424712835        1.22699065650372
C            1.41018529321836        1.02607228923558       -0.09869260259017
C            2.60655143960850        0.47992127926057       -0.49830617041002
C            3.64587891584348        0.28538845275742        0.42105781613078
N            4.84549544835180       -0.28054041170539        0.02648685630049
C            5.34302956119244       -0.08005297930332       -1.27297688459214
C            5.24212214473846        1.16821066037043       -1.88526567177800
C            5.74620086600660        1.35906094543407       -3.15797660525084
C            6.36333606644709        0.31705918853679       -3.83147477172414
C            6.47084071124635       -0.92335117936860       -3.22335460968666
C            5.96291287681604       -1.12621140447559       -1.95401288406172
C            5.59970030899432       -1.05694623482476        0.92473396352201
C            4.96953782767222       -1.97351268127726        1.76487079536877
C            5.71591288271179       -2.74243329187651        2.63752015770941
C            7.09520942476231       -2.61605038999917        2.67841685341517
C            7.72564308608914       -1.71161171134958        1.83914118915096
C            6.98672655121992       -0.93239212936638        0.96867283123560
C            3.43696702187987        0.66811738825578        1.75205979092024
C            2.24764409313258        1.23805249383608        2.14153338958038
C           -1.28435514778798        1.47094156632474        1.06688917122432
C           -2.39113673695678        2.27530461599819        0.76780600270175
C           -3.54754339698472        1.73176542160211        0.26342837066494
C           -3.65805258225222        0.35106388206439        0.04687384964314
N           -4.82970254261510       -0.19802851420743       -0.43496473126613
C           -6.07185267936688        0.40150691192570       -0.15696845798980
C           -6.34072193668029        0.92027728864292        1.10856804103368
C           -7.56632343306657        1.50199305977710        1.37291799036774
C           -8.53944760151231        1.56486393781824        0.38841518083424
C           -8.27887257259546        1.04122437375229       -0.86769037617494
C           -7.05334893094281        0.46493731352442       -1.14414329136343
C           -4.81039042570964       -1.37300019533182       -1.20895296269694
C           -5.77165525497931       -2.36092374555826       -1.00544243833913
C           -5.76403667613997       -3.50564353692561       -1.78029821057801
C           -4.79918642689521       -3.68340883670393       -2.75882848080088
C           -3.84160344846092       -2.70305305383794       -2.96360611850255
C           -3.84555833534283       -1.55181523416477       -2.19873001980873
C           -2.54622543490111       -0.45508831179249        0.32942752132448
C           -1.38664107704479        0.09488692667830        0.81826743958692
H            0.61971458822206        1.16738719020862       -0.82101210589806
H            2.74597570842771        0.18494917424720       -1.52741926781893
H            4.77462726993318        1.98539931196045       -1.35513857776372
H            5.66549898852801        2.33140413819761       -3.62151836580684
H            6.75993139615070        0.47186739307256       -4.82352617178195
H            6.94861079267672       -1.74105464420525       -3.74264762317167
H            6.04345383325830       -2.09429763467441       -1.48157507468506
H            3.89525048349449       -2.08037895278681        1.72491460688516
H            5.21737198350478       -3.45043840819039        3.28329765564405
H            7.67540243994470       -3.22055030722552        3.35913415276064
H            8.80010453416216       -1.60539586460121        1.86741604431762
H            7.47797589481727       -0.22231888900948        0.31965195295236
H            4.22333930545211        0.52514947079599        2.47757719242693
H            2.11043088168027        1.51404626164070        3.17694978863538
H           -2.32364119387935        3.34624627064751        0.89133174170781
H           -4.37808729053057        2.37610741518973        0.01800077280472
H           -5.58734814845954        0.86348322857474        1.88099536133673
H           -7.76312987975308        1.90153814460387        2.35687099282161
H           -9.49621579862985        2.01787769559717        0.60002718577096
H           -9.03163991326261        1.08815430896703       -1.64072369394117
H           -6.84818380100112        0.06271141020440       -2.12541126335503
H           -6.52012408272677       -2.22468949727981       -0.23868772705157
H           -6.51234268031185       -4.26629630649314       -1.61337023562684
H           -4.79529139365701       -4.57971907648856       -3.36056003805572
H           -3.09116969935617       -2.83039726015196       -3.72995105325334
H           -3.10735570164131       -0.78147432408071       -2.36756275403291
H           -2.61245710446723       -1.52205179160647        0.17924902290030
H           -0.55230589549528       -0.54753567133555        1.05771316409254
