72
 energy: -111.526326725115 gnorm: 0.000071286028 xtb: 6.7.1 (edcfbbe)
N            1.99539198623253        4.95942707123788       -0.74468669922206
C            1.10784802480920        4.29811254963656       -0.40388525867766
C            0.00626109794123        3.54527840279457       -0.02214117060719
C           -1.08951159539260        4.31182618318313        0.34865906546558
N           -1.97174662482751        4.98516818683078        0.67953883840428
C            0.00219442244829        2.10829737401247       -0.01218890471507
C            1.24971146245248        1.40109101392776        0.03917062392129
C            2.38800693637611        1.93292730294402        0.68011261157867
C            3.58611454062098        1.26488589292828        0.68554568754037
C            3.71670582401804        0.02352092851462        0.04846935419765
N            4.93805513794351       -0.64786986295459        0.03955946983742
C            4.96792991387370       -2.04178907695696        0.12735426612151
C            4.04782881004074       -2.71784575265578        0.93286743079128
C            4.08038632674788       -4.09572294666006        1.01681660430919
C            5.02524880348892       -4.82032207777661        0.30591900687919
C            5.93979853461841       -4.15430692611082       -0.49624108150042
C            5.91535726598252       -2.77685912492368       -0.58998962463009
C            6.13008150994197        0.07392943150989       -0.05957295735333
C            7.26845034375650       -0.34323244573836        0.63541027714458
C            8.44387205725000        0.37418158120601        0.53489663668946
C            8.50541790870092        1.51418316079486       -0.25245045618256
C            7.37762814778786        1.93425141111635       -0.94172648692021
C            6.19740619127414        1.22317370632453       -0.85167534317884
C            2.59206239756335       -0.52463568819233       -0.58549322182419
C            1.39520755716884        0.14293876432216       -0.58558510097393
C           -1.24714203934866        1.40477771850521       -0.05518954958050
C           -2.38598207898477        1.93467040790244       -0.69715950735599
C           -3.58502294140017        1.26839937125319       -0.69683749509230
C           -3.71648424806274        0.03061308266202       -0.05285034751462
N           -4.93828536842486       -0.63974058640374       -0.03996613779981
C           -4.96983752946288       -2.03407968210826       -0.11953640690301
C           -4.05010698933951       -2.71638652604807       -0.92018636795910
C           -4.08508287667231       -4.09467310166002       -0.99625095085191
C           -5.03201779686922       -4.81350077334155       -0.28225451543757
C           -5.94615716479152       -4.14127120812280        0.51517915907046
C           -5.91927995304774       -2.76337132532075        0.60108992682918
C           -6.12991883550351        0.08357312435663        0.05352315448772
C           -7.26731762728682       -0.33593247066333       -0.64162491854375
C           -8.44236646742394        0.38281620836874       -0.54648072495883
C           -8.50447651236962        1.52635141270988        0.23568242813713
C           -7.37759785679486        1.94876103918260        0.92502693722497
C           -6.19771172953745        1.23646624575388        0.84019580951578
C           -2.59190858809221       -0.51491552071185        0.58367089073332
C           -1.39419530387654        0.15093473220894        0.57834132787536
H            2.31027462984291        2.87170605537710        1.20859840311726
H            4.43369770483478        1.68738784238202        1.20503792760770
H            3.32396319327985       -2.15160527390213        1.49992149835704
H            3.36936729430888       -4.60684655682598        1.64868282771873
H            5.04866325381151       -5.89706873013349        0.37621068178041
H            6.67281074290478       -4.71248767228031       -1.05926996649659
H            6.61719414391073       -2.25987132787092       -1.22735254479515
H            7.21640569437621       -1.22054255502508        1.26299072473920
H            9.31561264700453        0.04680008645223        1.08159762949181
H            9.42556090877004        2.07328197059872       -0.32716503662712
H            7.41791799014385        2.81847769388114       -1.56024869550100
H            5.32407054886664        1.54470447446592       -1.39996381551592
H            2.68476420277048       -1.46707749206508       -1.10519923999590
H            0.55351953677715       -0.27452589487663       -1.11791166267343
H           -2.30779831177916        2.87017296344785       -1.23128148611641
H           -4.43270621170042        1.68919310900779       -1.21755898958303
H           -3.32470957175540       -2.15475470601400       -1.48985482679667
H           -3.37435847382734       -4.61070150787458       -1.62445486507734
H           -5.05731311476000       -5.89058771454272       -0.34642560250691
H           -6.68072774455958       -4.69488568229533        1.08068523741201
H           -6.62083740920888       -2.24147413532362        1.23474912832487
H           -7.21479287946423       -1.21617246719432       -1.26505032386372
H           -9.31339382371952        0.05359542805542       -1.09321510636725
H           -9.42437804711846        2.08637366880085        0.30633229187044
H           -7.41842672028263        2.83573613022032        1.53955505419784
H           -5.32499209916532        1.55978902795878        1.38840246642119
H           -2.68535878926149       -1.45395860522620        1.10938343760325
H           -0.55260204968788       -0.26436421394214        1.11249809180781
