  72
       -111.53699898
 N          2.0550625388        5.1305167375       -0.2851218518
 C          1.1535327350        4.4366517529       -0.1203629696
 C         -0.0022367080        3.6468743291        0.0345487537
 C         -1.1701814094        4.4159400548        0.2043151167
 N         -2.0864663445        5.0849626005        0.3885672109
 C          0.0043556019        2.2715894979        0.0213353917
 C          1.2516640704        1.5263246307        0.0305778000
 C          2.3665377198        1.9582309553        0.7565230930
 C          3.5404795312        1.2442410664        0.7423808379
 C          3.6580000460        0.0718223063       -0.0147989509
 N          4.8456556985       -0.6343469544       -0.0455619742
 C          4.8522888600       -2.0244558290       -0.2481649606
 C          3.9035994948       -2.8357639990        0.3717806038
 C          3.9227983786       -4.2029300769        0.1723709139
 C          4.8891618286       -4.7796107059       -0.6353634999
 C          5.8393043433       -3.9776541665       -1.2461632835
 C          5.8230990737       -2.6086968942       -1.0593855047
 C          6.0759885345        0.0261140881        0.1208108713
 C          7.0855829608       -0.5606609438        0.8806972458
 C          8.3002078294        0.0804448245        1.0330950155
 C          8.5214786268        1.3117397163        0.4384353967
 C          7.5196767953        1.8981530495       -0.3176270183
 C          6.3046022438        1.2611601969       -0.4826248050
 C          2.5404604980       -0.3674477202       -0.7364628656
 C          1.3626676486        0.3389671518       -0.7029891932
 C         -1.2421685344        1.5230186073       -0.0043346721
 C         -2.3435910305        1.9516917621       -0.7516593971
 C         -3.5174785973        1.2373357563       -0.7552771015
 C         -3.6496981571        0.0706206748        0.0082947176
 N         -4.8397939750       -0.6318993827        0.0255266531
 C         -4.8566987330       -2.0179232474        0.2547873121
 C         -3.9060137193       -2.8469102498       -0.3378421689
 C         -3.9366289478       -4.2097780962       -0.1121519093
 C         -4.9159786353       -4.7644888086        0.6952591550
 C         -5.8678948589       -3.9449088790        1.2792169379
 C         -5.8405788734       -2.5801600338        1.0657834856
 C         -6.0657051918        0.0286471798       -0.1706475137
 C         -7.0645066963       -0.5702730530       -0.9354622514
 C         -8.2761557116        0.0686900666       -1.1168726465
 C         -8.5052499718        1.3100611766       -0.5465358689
 C         -7.5140651143        1.9088326217        0.2137612633
 C         -6.3020901198        1.2741205659        0.4077954081
 C         -2.5446543841       -0.3656790670        0.7505446769
 C         -1.3652460742        0.3391319993        0.7319485463
 H          2.2946635336        2.8412652176        1.3724606566
 H          4.3799997254        1.5823264341        1.3301498305
 H          3.1584796289       -2.3873931586        1.0132720715
 H          3.1836611007       -4.8215412401        0.6592892275
 H          4.9027383870       -5.8480187873       -0.7862680454
 H          6.5945333507       -4.4189918620       -1.8789509723
 H          6.5594809810       -1.9818580484       -1.5408451170
 H          6.9091725049       -1.5174836235        1.3505087457
 H          9.0747586202       -0.3817048426        1.6265856705
 H          9.4700625096        1.8111236417        0.5618123634
 H          7.6860676590        2.8542270028       -0.7908118444
 H          5.5277906598        1.7142428763       -1.0811043877
 H          2.6143686210       -1.2612517792       -1.3374781340
 H          0.5187794582       -0.0033153223       -1.2837755506
 H         -2.2604261959        2.8324439988       -1.3696795112
 H         -4.3456824179        1.5718658515       -1.3606748212
 H         -3.1504842302       -2.4158831121       -0.9788582240
 H         -3.1959401898       -4.8425376143       -0.5779820654
 H         -4.9386877893       -5.8296955170        0.8661899944
 H         -6.6340569510       -4.3690282621        1.9105608958
 H         -6.5789490220       -1.9395043319        1.5252416249
 H         -6.8825534114       -1.5357058219       -1.3850194927
 H         -9.0426077388       -0.4037203368       -1.7127670546
 H         -9.4510643949        1.8081996097       -0.6932566473
 H         -7.6858277783        2.8737400105        0.6664832653
 H         -5.5346696311        1.7368205045        1.0108830883
 H         -2.6292998918       -1.2555560946        1.3559173606
 H         -0.5309448149       -0.0009646712        1.3278400860
