99
 energy: -151.674670435797 gnorm: 0.000067052140 xtb: 6.7.1 (edcfbbe)
C           -9.49137996362482       -1.73609765331540        4.55922673430176
C           -8.39685673752827       -2.46018546188081        4.11599730497434
C           -7.70223436785811       -2.05356862477000        2.99152131084993
C           -8.09446885489593       -0.91707421472736        2.28743723341655
C           -7.36060517301393       -0.48918021706541        1.08514440908574
C           -8.04622896698869       -0.03584910378021       -0.03748098518647
C           -7.36515936052662        0.35930950767618       -1.18445432477159
C           -8.10300278532242        0.83365990569712       -2.36681269225138
C           -9.19772750931767        1.68396227984079       -2.22693583086896
C           -9.88925666677526        2.13142170758405       -3.33772542422627
C           -9.50096701544640        1.73435717641679       -4.60670738713022
C           -8.41466314444793        0.88818202966228       -4.75751799443236
C           -7.71934157918615        0.44339216776595       -3.64798827527847
C           -5.97470858730292        0.29940494243382       -1.19789718438159
C           -5.27280154189206       -0.14695333731493       -0.08500284629240
C           -3.79471507586111       -0.20634283491314       -0.10529331480506
C           -3.14944185347198       -1.45144781846183       -0.11298415403775
C           -3.87787900862794       -2.67030567838005       -0.14829167440613
C           -3.24359658763128       -3.87409810093230       -0.12180985595174
C           -1.83704560617245       -3.93421255403941       -0.05090026805598
C           -1.10055758325791       -2.78969800963479       -0.04251881883172
C           -1.72080003964271       -1.51310787374731       -0.09829860896107
C           -0.97201204083842       -0.32724843513903       -0.11878867541507
C            0.50449395269476       -0.38647072200139       -0.11781593108746
C            1.19893239335126       -0.88945178347018       -1.21591851065378
C            2.57841688705058       -0.92097503307917       -1.22009239060576
C            3.30129379425958       -0.44322704390320       -0.12693444162723
C            4.75520430970078       -0.47872571020827       -0.18150122246954
N            5.43722521005361       -1.46990713812410       -0.69994112630280
C            6.74819981516746       -1.13510232382069       -0.55566538061776
C            7.88919962702587       -1.90127203266237       -0.92466679128329
C            7.75763510788792       -3.16916959276883       -1.50242954177438
C            8.87089964768199       -3.90540187563960       -1.82313450485830
C           10.13589214707367       -3.38060558434442       -1.56386894221799
C           10.27740475565709       -2.13328073496749       -1.00160965400780
C            9.16409468080384       -1.34584508492927       -0.66792057380669
C            9.28155272348527       -0.01180290437038       -0.10365870111218
C           10.53011291559683        0.59711372417469        0.09099241040773
C           10.65091343815882        1.87439842373711        0.58562914936413
C            9.51331322863522        2.61310489959873        0.89631649812468
C            8.27176923538552        2.05117769957114        0.72748017783310
C            8.12705390493657        0.74044663608638        0.24967955263693
C            6.86432295783383        0.11156149311111        0.05652123311485
N            5.57146439515478        0.51809070209562        0.30368306703336
C            5.10854800755621        1.70659158077392        0.90939522594996
C            5.38513969987059        1.96392247099735        2.24894496314688
C            4.89363164723976        3.11351915348068        2.84047573646468
C            4.12226779791930        4.00062312823898        2.10625957091348
C            3.84473781901712        3.74007053232072        0.77458223564441
C            4.33541874970193        2.59514928424249        0.17173673234867
C            2.60793250936346        0.02873005848123        0.98611411546945
C            1.22752606875332        0.05902661814400        0.98558931009150
C           -1.61755987168467        0.91826219377933       -0.13697811140244
C           -0.89149748969942        2.13755474878808       -0.19832913310076
C           -1.52769404669200        3.34064886787898       -0.18670354839871
C           -2.93378142649165        3.40094054389522       -0.10893128520499
C           -3.66802793676687        2.25563530983759       -0.07512404314185
C           -3.04609670872494        0.97921520168485       -0.11024452676432
C           -5.97025613216923       -0.54031139796889        1.05075569940781
C           -9.19702988650910       -0.19692569539731        2.74203652852118
C           -9.88757155512987       -0.60207015137822        3.86949637690573
H          -10.03308101670354       -2.05382553404617        5.43831323836878
H           -8.08427792476070       -3.34744752004819        4.64807072013356
H           -6.85837190727292       -2.63221491195502        2.64415028678297
H           -9.12636433506981       -0.02819110401944       -0.03266439387861
H           -9.49656449605476        2.01099523917029       -1.24127281640896
H          -10.73361955076688        2.79453802513722       -3.21367038186930
H          -10.04282011539192        2.08231978869495       -5.47416077705986
H           -8.10869371017813        0.57211090898819       -5.74472939289982
H           -6.88248098842915       -0.22891443939931       -3.77222191116089
H           -5.42936226094242        0.61510465164577       -2.07570384849187
H           -4.95563297309478       -2.62425133951287       -0.20047405574186
H           -3.81230218679836       -4.79241361419146       -0.15006692530415
H           -1.34901713944966       -4.89726967539381       -0.00839064315755
H           -0.02294941673660       -2.83780761927500        0.00872375462850
H            0.64727656196405       -1.24659330864025       -2.07364986689105
H            3.11893938847194       -1.30770528238908       -2.07074181860243
H            6.76011302239386       -3.54293048389165       -1.67752094940945
H            8.77209628949151       -4.88489364316376       -2.26776499075518
H           11.01551713236321       -3.95915138741605       -1.80741492788818
H           11.27586953051776       -1.77009663621278       -0.81687501371768
H           11.43175269671248        0.06187339248159       -0.15914366135124
H           11.63056655481629        2.30886431564594        0.72128091950718
H            9.60428674105395        3.62435133539848        1.26462717312027
H            7.39198505686291        2.63204193452074        0.95344151816577
H            5.98346866839017        1.26290458223686        2.81323021335117
H            5.11032312097096        3.31227177068409        3.87931683105109
H            3.73715252547042        4.89437148992208        2.57312268099628
H            3.24499845377191        4.42961768433231        0.19996386664871
H            4.12351022627242        2.38106596133631       -0.86569961935813
H            3.14527836668281        0.35801081421009        1.86259162726010
H            0.69806452390630        0.42568312385828        1.85323967926360
H            0.18580734836320        2.09308859714965       -0.25700251777107
H           -0.96028712298166        4.25894230187322       -0.23342780915427
H           -3.42266487072373        4.36411586064031       -0.08224000167165
H           -4.74554349640836        2.30158133816716       -0.02088466892367
H           -5.42029293737645       -0.86728833396608        1.92152324194111
H           -9.50243273078084        0.69754727598592        2.21835057269414
H          -10.73778683920478       -0.03010940102468        4.21303069182849
