99
 energy: -151.606705068125 gnorm: 0.000054373984 xtb: 6.7.1 (edcfbbe)
C           -9.29349290708568        3.92066140841959        3.15897863379803
C           -9.78010868343377        2.62380569258921        3.14480705487021
C           -9.14115993726913        1.64892563164661        2.40065338993350
C           -8.00064331706620        1.95449977706490        1.66137281684097
C           -7.32219246424773        0.92157126393313        0.86105599973490
C           -8.06145601416470        0.00553930075077        0.11743954141756
C           -7.42924784368505       -0.97383468512080       -0.64402038133659
C           -8.22026209830826       -1.93877281447490       -1.42561314385106
C           -9.35286010775359       -1.53082291668625       -2.12689304875470
C          -10.09753943197597       -2.44203662477171       -2.85320744512699
C           -9.72616943450419       -3.77609387962566       -2.88776263528107
C           -8.60152546543231       -4.19278835577316       -2.19467476373393
C           -7.85329140614237       -3.28217729954368       -1.47141410839915
C           -6.04082047966382       -1.03156881996114       -0.65276921525092
C           -5.27712739546599       -0.12334716355354        0.08216700679457
C           -3.81660152079416       -0.19071593620635        0.06599528589382
C           -3.15693762961963       -1.40078215723374        0.43231185856105
C           -3.86771478791446       -2.52007811830580        0.88118933644644
C           -3.23379077585717       -3.73396186841181        1.12642955687436
C           -1.87606815721122       -3.85218484041002        0.91239166960288
C           -1.13541910629994       -2.73615031779527        0.52983662742507
C           -1.73441799673690       -1.48592358281154        0.35210825454780
C           -0.96650527869132       -0.31479089012200        0.05073569067291
C            0.48124193448173       -0.37276066343227        0.06052269485401
C            1.23644332417781        0.11580185302090       -1.01818390924911
C            2.61076074999259        0.08498852389276       -1.00508211106001
C            3.30213424597543       -0.41858863574449        0.10228603115081
C            4.74504745679863       -0.45432587924970        0.18802600257194
N            5.40449444356173       -1.41636253252603        0.79457956244452
C            6.71977253522612       -1.11466615950944        0.65458294924467
C            7.84046721657776       -1.87721451114386        1.08892705961091
C            7.67513559326556       -3.10466044683715        1.74032775505390
C            8.76871350073033       -3.84714005171169        2.11157707627877
C           10.04708183754968       -3.37058710021798        1.82704289849348
C           10.22189244303660       -2.16133275748278        1.19445782315679
C            9.12988125185131       -1.36674571542502        0.81206903542415
C            9.28227416305496       -0.06811699512015        0.17754120885904
C           10.54454985205113        0.51019903937909       -0.01858522768520
C           10.69810961990649        1.75679260542170       -0.57899171295946
C            9.58040006374424        2.49472094837898       -0.95691583002687
C            8.32603969065236        1.96244649293792       -0.78745778472900
C            8.14801832833535        0.68168229443613       -0.24277888294754
C            6.87129424873004        0.08642373687427       -0.04150327880736
N            5.59283175075905        0.49398125360970       -0.34756728489025
C            5.17499375829474        1.64916142924224       -1.04294430078926
C            4.41097640684522        2.60710469634108       -0.38653647146546
C            3.96831419103399        3.72106467431761       -1.07788341303070
C            4.28598121218827        3.88297253514221       -2.41641278226288
C            5.04927931083536        2.92759480234537       -3.06897570048215
C            5.49271403954562        1.80784316224419       -2.38888733686472
C            2.55748512535258       -0.94166767899497        1.16765143862201
C            1.18442558396248       -0.92186238797114        1.14692784616071
C           -1.63221166223519        0.91671880188874       -0.25487660301418
C           -0.93063216575958        2.10933736013260       -0.45342294261102
C           -1.57737065516424        3.28226581872897       -0.83547990018847
C           -2.94341831551167        3.28154511912272       -1.02763269720132
C           -3.67586952152142        2.12886894349529       -0.76301936293287
C           -3.05783718070629        0.95491382603468       -0.31638482579692
C           -5.93480102179645        0.85134335026790        0.83449751341052
C           -7.51690873757485        3.26088799894545        1.68701434477557
C           -8.16000656684862        4.23559828542527        2.42764371773605
H           -9.79501038173134        4.68237225757561        3.73817862716004
H          -10.66106650115040        2.37083106602541        3.71753315415972
H           -9.51732553183639        0.63587709625345        2.40661881066221
H           -9.14002219924281        0.05562832872203        0.13166287859425
H           -9.63956843548585       -0.48891995491044       -2.11761273714383
H          -10.97121188114953       -2.11021445313787       -3.39606856981843
H          -10.31028976120831       -4.48764734768517       -3.45312643126432
H           -8.30764176664186       -5.23265901109169       -2.21619039124508
H           -6.98564532501334       -3.61743630812367       -0.92161121166788
H           -5.53818473506534       -1.75921163999277       -1.27327792482948
H           -4.93155212644078       -2.43934863665196        1.04445651155905
H           -3.81279025891858       -4.58047450739078        1.46547939146764
H           -1.37722778885738       -4.79975744898666        1.05270464038911
H           -0.07568957327857       -2.84730690599960        0.35950482034219
H            0.72180010511916        0.47627741466630       -1.89703229935228
H            3.15251503332966        0.42566227587516       -1.87417409693008
H            6.66795966592308       -3.44434830491103        1.92886099386654
H            8.64377810137504       -4.79578091650814        2.61276848840921
H           10.91104096537354       -3.95653983609611        2.10619977282211
H           11.22959455432509       -1.83588276028274        0.99061798397196
H           11.43077680751737       -0.02265766051981        0.28583231951921
H           11.68765442670249        2.16864060010975       -0.71303523641274
H            9.69672132733001        3.48311635178939       -1.37648484595584
H            7.46162963546727        2.54450310673222       -1.06377734165385
H            4.16743745756856        2.46940923703771        0.65682469443570
H            3.37462682457186        4.46389357263518       -0.56684751154498
H            3.93878948556084        4.75314808046725       -2.95248066685024
H            5.29739291240709        3.05002323637624       -4.11256633766618
H            6.08482641044937        1.05413171521274       -2.88798246590670
H            3.09016415074863       -1.34392666619127        2.01594496928284
H            0.63059356534685       -1.28501678785384        2.00035330676772
H            0.13742479695269        2.12994587818027       -0.30121696101666
H           -1.00049049316688        4.18166950124715       -0.99247479561538
H           -3.45195918197599        4.17303646680483       -1.36446056428038
H           -4.74522869367811        2.13927821681012       -0.90880797231709
H           -5.35182145120216        1.52954857034778        1.44065643028987
H           -6.64131720716421        3.51707561119770        1.10796397322716
H           -7.77679480137814        5.24613401221381        2.43305747122397
