99
 energy: -151.606429937990 gnorm: 0.000060066851 xtb: 6.7.1 (edcfbbe)
C           -9.57423424077045       -2.25708504534053        4.30124734659207
C           -8.46849801169729       -2.93047142794977        3.80869686016051
C           -7.76375377075996       -2.41925488800020        2.73431578035526
C           -8.15679450674098       -1.22694632064157        2.13028363359945
C           -7.40735205562139       -0.67989780416961        0.98729339279962
C           -8.07854034802246       -0.11676764957942       -0.09479934200831
C           -7.37742472264779        0.40710089708077       -1.17705898404878
C           -8.09936998768030        0.97713416329165       -2.32703536435422
C           -9.20074244791856        1.80761385829254       -2.13370928580868
C           -9.88010933187732        2.33926275441329       -3.21457864409819
C           -9.47410504214324        2.04449549904884       -4.50573047071945
C           -8.38102026185623        1.21824767427143       -4.70919606823192
C           -7.69645626241612        0.69116046052222       -3.62938862143611
C           -5.98792543210338        0.37822278944510       -1.16238297155850
C           -5.29403482320907       -0.18219918303173       -0.09065055804854
C           -3.82888837425825       -0.21367511290701       -0.08048415657700
C           -3.15293177783800       -1.46612876771636       -0.01340525432504
C           -3.85340290972915       -2.67822707180340       -0.03478819123670
C           -3.20215236578026       -3.89665551324981        0.12777006987506
C           -1.83770443893849       -3.92139684079517        0.33002274869687
C           -1.11048603085554       -2.73335789138429        0.30415700247465
C           -1.72863086452524       -1.50165608752293        0.07152521432075
C           -0.98010881883532       -0.28397419870556       -0.02296412689721
C            0.46822470868554       -0.31708635939900        0.00366253316701
C            1.19851796909304       -1.15890959992010       -0.85331027671463
C            2.57092147264333       -1.15857606361069       -0.84714551969331
C            3.29276276686424       -0.33179633643142        0.02746823955954
C            4.73418588418806       -0.38948718651880       -0.03071496809195
N            5.37800818250413       -1.45110863649481       -0.47001133959254
C            6.69671864468853       -1.15445120773240       -0.38626293907954
C            7.79997556205108       -1.98796698599857       -0.72418017719427
C            7.60641599073012       -3.29135552616864       -1.19517700823734
C            8.68285256440599       -4.08657545089852       -1.50159716372099
C            9.97219486236614       -3.58410930737883       -1.33650528505957
C           10.17419864148115       -2.30295015783492       -0.87727356318145
C            9.09998893316313       -1.45727855404157       -0.55900921642368
C            9.27994937527647       -0.09060086796894       -0.09803752362075
C           10.55499474882408        0.48008069911432        0.02420572081569
C           10.73794005279454        1.78316946592741        0.42416335598762
C            9.63770815230182        2.58570617700126        0.71015674598045
C            8.37170062008652        2.06342592828221        0.61083697751752
C            8.16267298720496        0.73021935244142        0.22573008157452
C            6.87310124881551        0.14051632714446        0.10739461028141
N            5.60330022344098        0.61699234438791        0.34194727946689
C            5.22677916616640        1.89379834543328        0.81604282051147
C            5.45774334703701        2.24075137706968        2.14435695593608
C            5.06544676148884        3.48492569352965        2.60414263136725
C            4.44116411841790        4.37915757313636        1.74845859480973
C            4.21065946389016        4.03047325618248        0.42777954403995
C            4.60217525441461        2.78968510141458       -0.04378643192042
C            2.57153115223196        0.47196435739323        0.91848492853606
C            1.19702784821282        0.48964636795968        0.89226881028730
C           -1.66404372330623        0.96911593719023       -0.14888127225920
C           -0.97637262762141        2.16887423567811       -0.35147286845630
C           -1.64230536145754        3.39092553415702       -0.41293535486113
C           -3.01454693473325        3.43341266664106       -0.27850504776258
C           -3.73166481138843        2.24909512266986       -0.14387953802208
C           -3.09105908620447        1.00415263525444       -0.12710666220027
C           -6.01793420691162       -0.71584689474962        0.97530920429310
C           -9.27172365291548       -0.55938555993268        2.63272039154746
C           -9.97236308625831       -1.06923872048892        3.71030160873700
H          -10.12311504668493       -2.65591804095921        5.14194682545168
H           -8.15446228944422       -3.85926078078559        4.26344372185234
H           -6.91026319110689       -2.95742376716647        2.34791006100265
H           -9.15837019046737       -0.12279094418457       -0.11396155260799
H           -9.51412771384674        2.05166573858482       -1.12871715465947
H          -10.72953795965230        2.98680027938198       -3.04961527344338
H          -10.00750091896133        2.45692345515174       -5.34983670020017
H           -8.06188002628102        0.98200860440440       -5.71436525708135
H           -6.85363120034484        0.03514021544423       -3.79410128482396
H           -5.43278082102717        0.78700438015181       -1.99437340678441
H           -4.92265829686649       -2.66683497428794       -0.18201692028412
H           -3.77188780304353       -4.81421440805683        0.11081730116315
H           -1.32378203717333       -4.85621749919173        0.49876607430688
H           -0.04597111111766       -2.77059488279500        0.47702414121077
H            0.66522975872886       -1.77365168758783       -1.56378315080837
H            3.12592493710813       -1.78596901645459       -1.52757318045653
H            6.59171941927946       -3.64348195875806       -1.30275388302344
H            8.53624668373093       -5.09320716509099       -1.86485252101255
H           10.82345082530870       -4.20669991724960       -1.57202085793288
H           11.19004265311210       -1.95908780937610       -0.76479906814576
H           11.42888928273269       -0.10787436200504       -0.20497734376831
H           11.73668458585990        2.18624684307752        0.50642690880847
H            9.77669196594089        3.61483850418790        1.00692188809165
H            7.52223203484417        2.69249069604987        0.82153532246156
H            5.94328093251673        1.53373145834147        2.80178213359579
H            5.24517834842906        3.75360568051716        3.63423193995968
H            4.13435082178259        5.34788587947386        2.11249943882281
H            3.72589261185938        4.72593869422376       -0.24057492556789
H            4.42601172412963        2.50528863734145       -1.07089599256709
H            3.08683308771624        1.06610563756951        1.65649455319570
H            0.66029134531993        1.09759759986033        1.60622523817170
H            0.09601777713681        2.15383061675053       -0.47121612076466
H           -1.07605882914132        4.29914914056204       -0.55761067058973
H           -3.53979260643005        4.37711721427584       -0.29327956417942
H           -4.80611631155518        2.29184903938756       -0.05183952864754
H           -5.48295983728950       -1.12240749826986        1.82141316604997
H           -9.57838756899971        0.37636898946676        2.18784325388935
H          -10.83173142562530       -0.53688815688800        4.09256419356695
