99
 energy: -151.674749289405 gnorm: 0.000053289632 xtb: 6.7.1 (edcfbbe)
C           -9.33643263210397       -2.59556007933856       -4.07849746625373
C           -8.24414594560962       -1.81040381851257       -4.40899570218841
C           -7.53678432413151       -1.15040100568420       -3.42086594249808
C           -7.91427395142530       -1.26055712967578       -2.08431355476302
C           -7.16431861607244       -0.55556582699005       -1.03185920845362
C           -7.83431553822064        0.08281125865687        0.00699868323523
C           -7.13737593868017        0.75991156934725        1.00244814788989
C           -7.85909988594814        1.44376906186649        2.08814410115545
C           -8.95181695805136        0.84090350959376        2.70694621637151
C           -9.62704513504710        1.48501956355809        3.72752396594910
C           -9.22591629499851        2.74440159197614        4.14204623081928
C           -8.14235782293775        3.35443435928413        3.53158568063248
C           -7.46234342609045        2.70911556124458        2.51501460001776
C           -5.74663805602449        0.78708600094245        0.95384299990365
C           -5.06128494076879        0.15316461739203       -0.07469021915536
C           -3.58158173940454        0.19410733691001       -0.12128319935320
C           -2.94045031480998        1.04130955745587       -1.03530236855121
C           -3.67526281102512        1.88257028509965       -1.91259670023995
C           -3.04575878294270        2.68605274375593       -2.81259085347908
C           -1.63859590723202        2.69040014497778       -2.89712004770831
C           -0.89704267328692        1.91134524408616       -2.06288752244106
C           -1.51200387710445        1.07834132684052       -1.09053742051005
C           -0.75968404721977        0.28657652727160       -0.20972197676629
C            0.71623703236568        0.34464799450809       -0.24693261478386
C            1.38878473752702        1.50596225434925        0.12820959553974
C            2.76735273790567        1.55586170559916        0.11185842179996
C            3.51269350398172        0.44120531009516       -0.27331028325823
C            4.96458265655655        0.53955433951562       -0.25991585503423
N            5.61816141632801        1.61445548821799       -0.62671952511901
C            6.93750959213229        1.31751616022034       -0.47701382694941
C            8.05710054265381        2.14222977630514       -0.78000254898363
C            7.89194401362259        3.42610105327421       -1.31205107289381
C            8.98544056639324        4.19424201291869       -1.62598533865649
C           10.26438330843793        3.68249385076762       -1.41356945689394
C           10.43889800288485        2.42412345772980       -0.88628004262856
C            9.34649563760160        1.61150249925947       -0.54399128054111
C            9.49880962974199        0.29233986788436        0.04634463577389
C           10.76122657918634       -0.22939008398179        0.36534395108651
C           10.91403483050462       -1.45737513810766        0.96486049934546
C            9.79585832985244       -2.21902330412921        1.29040696130930
C            8.54191621245695       -1.74843539344694        0.98725870885069
C            8.36515185684608       -0.51133431584990        0.35041530497151
C            7.08839572356210        0.02238020574479        0.01520465399356
N            5.80860384802416       -0.47248491728133        0.13810739875878
C            5.38353246723738       -1.74415405455756        0.57999642461220
C            5.70704857194083       -2.88279692719038       -0.15213201466219
C            5.25568223296222       -4.11965255257457        0.27148254511089
C            4.47638306289626       -4.22405623590442        1.41291953075730
C            4.15131153685776       -3.08870645609183        2.13661579567826
C            4.60276072761921       -1.84701574366429        1.72505383249622
C            2.84149801747062       -0.71109102522987       -0.67836005809798
C            1.46136103630824       -0.75634063292675       -0.66066395166149
C           -1.40223672152927       -0.55512225557041        0.71102225698685
C           -0.67547095617510       -1.35028817706614        1.63687037995943
C           -1.31174348250157       -2.17711686846343        2.51105956083253
C           -2.71897164758538       -2.25980870509654        2.51836987774280
C           -3.45409136445430       -1.49577566066639        1.66540635696114
C           -2.83097943142926       -0.61037384488368        0.74620084885691
C           -5.77349627003472       -0.51256331773506       -1.06423656159122
C           -9.01586087328606       -2.05087583567117       -1.76374901238591
C           -9.71893253198333       -2.71442401302349       -2.75245627385529
H           -9.88730936522814       -3.11240427307103       -4.85089584817345
H           -7.94313504212293       -1.71056673065506       -5.44221406636537
H           -6.69446798014669       -0.52832825321444       -3.68787657980667
H           -8.91444588336496        0.08691873762860        0.01916583419252
H           -9.26105063873251       -0.14746112657658        2.39828412914002
H          -10.46927632612423        1.00246298266522        4.20283171845228
H           -9.75530619413594        3.24799509995795        4.93789623848493
H           -7.82687782659286        4.33847955205947        3.84812133293183
H           -6.62676999204317        3.19603497770424        2.03267330257970
H           -5.18903136773948        1.29314015478131        1.72884687912616
H           -4.75352056162359        1.87281748931622       -1.85010288114153
H           -3.61822949658403        3.32147711873142       -3.47288441319491
H           -1.15387521329434        3.31873131142496       -3.63037515186827
H            0.18054466828979        1.91450095407873       -2.13317134432158
H            0.82029231295404        2.36898219910670        0.44363511223359
H            3.29077731243761        2.45391576703942        0.40312225033469
H            6.88495544075384        3.78144053402520       -1.47001429864668
H            8.86047721977813        5.18489320276159       -2.03813156188648
H           11.12871007527753        4.28011409251887       -1.66571825265288
H           11.44713531483203        2.06946627161221       -0.74259194907783
H           11.64802015054026        0.34354937801909        0.14777508457150
H           11.90342159627519       -1.82487350028946        1.19507225572651
H            9.91130889121524       -3.17347257720669        1.78259198733181
H            7.67699311765073       -2.33315344468482        1.25647588492471
H            6.31080745094135       -2.78863425730332       -1.04343568123365
H            5.50946552708595       -5.00227904328688       -0.29615281080417
H            4.12293034858056       -5.19090585284534        1.73755505769238
H            3.54494685070706       -3.16695731133193        3.02629938571643
H            4.35484325648422       -0.95485271168003        2.28146307502224
H            3.39517090957904       -1.57028582811117       -1.02565653871140
H            0.94990935573428       -1.65315494286366       -0.97955375449366
H            0.40248350588234       -1.28630635963050        1.63682956858620
H           -0.74319501435336       -2.77706467962623        3.20692508010531
H           -3.20721192555871       -2.92979408798510        3.21126284819169
H           -4.53266598478799       -1.55168940701815        1.67394683249327
H           -5.23566583654169       -1.01839534239536       -1.85320343405537
H           -9.30998422308670       -2.16101796444896       -0.72977402116796
H          -10.56802194667634       -3.32856604649171       -2.48794353733270
