  73
       -105.25037327
 C         -1.5166453745        5.0204903017        0.0473965607
 C         -0.7984836396        3.7056929386        0.0566776268
 C          0.5876441652        3.6346529467        0.0794293722
 C          1.2389188953        2.4184326855        0.0686139686
 C          0.5212358698        1.2208843486        0.0300843928
 C         -0.8737887044        1.2825904020        0.0198474084
 C         -1.5078056676        2.5137667925        0.0302054116
 C         -1.7362910295        0.0347010428        0.0060206978
 C         -2.5355984055        0.0300308510       -1.2747662232
 C         -1.8462353734        0.0689719568       -2.4822259802
 C         -2.5216226772        0.0543554188       -3.6864525980
 C         -3.9087938247       -0.0011684495       -3.7071683188
 C         -4.6030768565       -0.0419355814       -2.5185347004
 C         -3.9283047807       -0.0271266850       -1.2950804037
 C         -4.7310081206       -0.0743467272       -0.0566924535
 O         -5.9473725767       -0.1536041975       -0.0818797847
 C         -3.9810747150       -0.0175756752        1.2140008028
 C         -4.7065662842       -0.0223937294        2.4081729825
 C         -4.0625843423        0.0302740409        3.6243908644
 C         -2.6757608732        0.0887042770        3.6613622366
 C         -1.9504242215        0.0926423857        2.4864376955
 C         -2.5886907685        0.0407349765        1.2516387412
 C         -0.9002316055       -1.2330579117        0.0248003437
 C         -1.5601958948       -2.4511546509        0.0324698494
 C         -0.8763910992       -3.6571646225        0.0318214225
 C         -1.6161690681       -4.9599209510        0.0201602302
 C          0.5117611210       -3.6153495469        0.0130845978
 C          1.1879210986       -2.4134394141        0.0056648432
 C          0.4952851725       -1.2001636999        0.0200139010
 N          1.1824697497        0.0031677112        0.0184167589
 C          2.6045920088       -0.0100831428        0.0024215429
 C          3.2931596459        0.1844473030       -1.1848345455
 C          4.6769843263        0.1763469590       -1.1987561726
 C          5.4090901063       -0.0283711462       -0.0351821603
 C          6.9290952149       -0.0452454293       -0.0070148430
 C          7.4231371877        1.0664418557        0.9295375729
 C          7.5484371492        0.1846488216       -1.3881924575
 C          7.4039599867       -1.4108994172        0.5091094372
 C          4.7000960709       -0.2242239300        1.1485210312
 C          3.3197183024       -0.2149175630        1.1746843041
 H         -0.8556716849        5.8261139505        0.3578388574
 H         -2.3767522793        4.9929661008        0.7135658302
 H         -1.8796002475        5.2436318328       -0.9564973447
 H          1.1713232385        4.5434611946        0.1087767678
 H          2.3177062041        2.3919775168        0.0943702654
 H         -2.5889722697        2.5388484158        0.0199534149
 H         -0.7665622744        0.1108335258       -2.4700774166
 H         -1.9678273924        0.0851404190       -4.6134226657
 H         -4.4378546826       -0.0137298190       -4.6484229361
 H         -5.6820076751       -0.0871616098       -2.4985999606
 H         -5.7837512836       -0.0692674744        2.3434365145
 H         -4.6307608106        0.0264189042        4.5426361145
 H         -2.1614620556        0.1312078019        4.6103700375
 H         -0.8711812243        0.1380567446        2.5185887080
 H         -2.6416010155       -2.4536881522        0.0375712481
 H         -1.0341535590       -5.7406005791        0.5048165396
 H         -2.5730820013       -4.8645465054        0.5281430272
 H         -1.8102542487       -5.2718605429       -1.0069257810
 H          1.0753701314       -4.5371772862        0.0040290268
 H          2.2671629879       -2.4096459574       -0.0130113750
 H          2.7408809208        0.3459654623       -2.0991471706
 H          5.1751634851        0.3322084446       -2.1412506043
 H          7.0676260610        2.0351060121        0.5841645106
 H          7.0696080735        0.9165449377        1.9457310398
 H          8.5107152138        1.0841372088        0.9471606433
 H          7.2486924777       -0.5932860676       -2.0865874324
 H          8.6331594803        0.1612941316       -1.3064052893
 H          7.2638928301        1.1547060702       -1.7891686381
 H          8.4910594367       -1.4485346102        0.5199928966
 H          7.0375888869       -2.2053345256       -0.1380629178
 H          7.0474061275       -1.6010744881        1.5176137891
 H          5.2287757949       -0.3855867473        2.0755241862
 H          2.7880549607       -0.3693936125        2.1022467462
