73
 energy: -105.250381495938 gnorm: 0.000073092856 xtb: 6.7.1 (edcfbbe)
C           -2.20142777895682        4.99253267886625       -0.00705680668786
C           -1.47602398883454        3.68176135018801        0.00923576980794
C           -0.08843239887795        3.62448565696213        0.00305044756927
C            0.57432877367333        2.41496707075172       -0.00293476009415
C           -0.13286661166033        1.21030032966562       -0.00377879990417
C           -1.52804598775748        1.25812029832257        0.00227137610813
C           -2.17402693217387        2.48351981560482        0.00823116716439
C           -2.37760459839497        0.00004383629689        0.00292657138456
C           -3.20389807065019        0.00025222111031       -1.26037044899220
C           -2.53887152244939        0.00042075318099       -2.48206816345398
C           -3.23931534706770        0.00064369547624       -3.67194670950868
C           -4.62773889365215        0.00070135597585       -3.66349342867477
C           -5.29812102131016        0.00052434527559       -2.46050109737123
C           -4.59788770197048        0.00030104255339       -1.25135527715778
C           -5.37574223750979        0.00013274947981        0.00369676916936
O           -6.59508885793009        0.00013982489762        0.00413379109019
C           -4.59716414693386       -0.00008751028314        1.25834549487784
C           -5.29674310307318       -0.00026541983115        2.46789867982585
C           -4.62568934356148       -0.00045386957886        3.67052984676997
C           -3.23725176775780       -0.00046587534738        3.67821669334600
C           -2.53744909410243       -0.00029464654672        2.48794992456825
C           -3.20313776611535       -0.00010785658515        1.26661517337926
C           -1.52813246452203       -1.25809136158967        0.00193054557659
C           -2.17419853435770       -2.48344642133144        0.00753769324334
C           -1.47627963674602       -3.68173837110466        0.00812542750059
C           -2.20179184267581       -4.99244621014800       -0.00849637030075
C           -0.08868543069369       -3.62455905374603        0.00179746609519
C            0.57416124048764       -2.41508406097919       -0.00385003816416
C           -0.13294878902365       -1.21036789298883       -0.00414522596688
N            0.54049170038292       -0.00005659809750       -0.00847629964281
C            1.96362679368858       -0.00008358636910       -0.01848616191450
C            2.65620992171915        0.00110462312029       -1.21896848403493
C            4.04025845795502        0.00114048514528       -1.22584280362892
C            4.76758757136431       -0.00002126677715       -0.04146362273340
C            6.28745603687662       -0.00008156470194       -0.00469482125670
C            6.76878708388385        1.25550253617300        0.73620845937885
C            6.91219533429892        0.00157343238609       -1.40245335311435
C            6.76866610739343       -1.25747177008714        0.73321627279123
C            4.05413354563055       -0.00123957347195        1.15565246047986
C            2.67356327287161       -0.00126370149587        1.17435487141437
H           -2.42169427929253        5.28648320255051       -1.03418523989231
H           -1.59741303259190        5.77552012331635        0.44570711968320
H           -3.14464583153555        4.91810444934064        0.52942844342928
H            0.48565787410459        4.53983807020233        0.00433756419899
H            1.65369550603377        2.39776529984387       -0.00558006469791
H           -3.25539074935416        2.49795317061525        0.01325250583275
H           -1.45827867819509        0.00037289876258       -2.49217852654997
H           -2.70424287188444        0.00077197660881       -4.61040042211248
H           -5.17652127856328        0.00088260270586       -4.59344856419990
H           -6.37737689641970        0.00056542719608       -2.41798042066293
H           -6.37603651620873       -0.00024120804920        2.42594862662061
H           -5.17399587001285       -0.00059071073621        4.60076538674713
H           -2.70171269357116       -0.00061532707213        4.61637165669296
H           -1.45685953014994       -0.00030764360570        2.49740400550158
H           -3.25556315230604       -2.49780761941555        0.01260431040494
H           -1.59770347674600       -5.77567217877115        0.44375521324011
H           -3.14483964121333       -4.91816515236494        0.52831031557842
H           -2.42240308208590       -5.28594693787602       -1.03567916323250
H            0.48533996981848       -4.53995266610034        0.00268530641498
H            1.65352921769723       -2.39795463567512       -0.00668271595579
H            2.10732257838715        0.00202916977390       -2.14940733025043
H            4.54241106323983        0.00208963347468       -2.17910520278057
H            6.41017333260007        2.15054151459370        0.23195939695662
H            6.40957436883543        1.27492234800729        1.76131198304909
H            7.85601502845799        1.28342460218503        0.75643045507730
H            6.62250203114368       -0.88442968177304       -1.96268879364378
H            7.99655563221241        0.00153081276208       -1.31337587918531
H            6.62239445742231        0.88884502741329       -1.96062326668475
H            7.85589137686055       -1.28548408354242        0.75348998650980
H            6.41007312156707       -2.15127488405328        0.22676581402086
H            6.40932863051961       -1.27934948315524        1.75822753455234
H            4.57928057898861       -0.00218153495183        2.09857648746274
H            2.13802684075948       -0.00221107256072        2.11246124895549
