73
 energy: -105.250388159725 gnorm: 0.000076909552 xtb: 6.7.1 (edcfbbe)
C           -1.52605153274567        5.01637622131398        0.04301832260631
C           -0.80486393751073        3.70321419703828        0.05139184617947
C            0.58146735860751        3.63479183749573        0.06894119028291
C            1.23501322699087        2.41975534876726        0.05787104328860
C            0.51953386007456        1.22074192628948        0.02359435152132
C           -0.87557883873936        1.27996039751448        0.01752334171574
C           -1.51190243848283        2.50990867615121        0.02882881393354
C           -1.73618854254849        0.03061758591308        0.00536548482515
C           -2.53754800051778        0.02834529120015       -1.27415221956495
C           -1.84998740340712        0.06871051818618       -2.48264630143682
C           -2.52747857388336        0.06242736855598       -3.68574512971171
C           -3.91493487563907        0.01344557930606       -3.70427260506675
C           -4.60738471317099       -0.03022949393915       -2.51464924704399
C           -3.93048942301743       -0.02354938922357       -1.29231878884567
C           -4.73131382598450       -0.07303216413428       -0.05279128880035
O           -5.94779378189116       -0.15283874571824       -0.07612117690783
C           -3.97928429005127       -0.01705354479181        1.21672993519129
C           -4.70301199947386       -0.01816616905268        2.41197066309579
C           -4.05714215238652        0.03429900138857        3.62718707728944
C           -2.67012547245101        0.08739978127166        3.66207606302117
C           -1.94650974647506        0.08748441214062        2.48610393643909
C           -2.58672844512287        0.03714275793546        1.25225399432729
C           -0.89812963700628       -1.23563081250384        0.02276050723461
C           -1.55605203978465       -2.45481486015750        0.03221934835710
C           -0.87019840742749       -3.65970253853882        0.03232208953355
C           -1.60763042754388       -4.96377801708383        0.02331440406877
C            0.51784588913019       -3.61555271259650        0.01220873837950
C            1.19198708658421       -2.41253645677823        0.00248743818773
C            0.49739010527460       -1.20038868639001        0.01632392046449
N            1.18273821935958        0.00409110663924        0.01202596777532
C            2.60491765149526       -0.00756079499039       -0.00161508399581
C            3.29575227980528        0.18787453006019       -1.18740298152615
C            4.67964325318648        0.17891613493033       -1.19884484983520
C            5.40957054029912       -0.02769367011255       -0.03425639912318
C            6.92945427791329       -0.04742947275628       -0.00357866842252
C            7.42444425142012        1.06252332991347        0.93454815833600
C            7.55118517264721        0.18175067609449       -1.38378575469080
C            7.40040627411756       -1.41459685579019        0.51234525599844
C            4.69835446488069       -0.22367138038617        1.14807867237694
C            3.31795690251108       -0.21330417757002        1.17179562442172
H           -0.86639470459684        5.82361071031933        0.35190867938526
H           -2.38492393630752        4.98716046361637        0.71070526997862
H           -1.89133716203511        5.23828832489371       -0.96028928305396
H            1.16350736328614        4.54474873256232        0.09496088915123
H            2.31390297065068        2.39538544809579        0.08031455383165
H           -2.59312666405196        2.53291937992500        0.02166011313739
H           -0.77006538851261        0.10583679065353       -2.47222228774010
H           -1.97512260062320        0.09512660664992       -4.61356212075406
H           -4.44569508395729        0.00857444380729       -4.64461623974529
H           -5.68649979952951       -0.07073092847312       -2.49305864257644
H           -5.78041100358488       -0.06124030915249        2.34885856970496
H           -4.62392886242595        0.03351851355598        4.54627806493402
H           -2.15428773166800        0.12827342083582        4.61031927725557
H           -0.86707632437274        0.12894057979985        2.51667981333850
H           -2.63745890248598       -2.45909505531033        0.03897554736201
H           -1.02213838328681       -5.74342662730083        0.50541937640047
H           -2.56264852096271       -4.87035427950496        0.53518416504080
H           -1.80527484638253       -5.27575456248154       -1.00309116157557
H            1.08303403658358       -4.53637922972164        0.00345268998710
H            2.27116716999775       -2.40714568993395       -0.01781983988337
H            2.74525060081609        0.35104892873694       -2.10250153170031
H            5.17962317162837        0.33530386423049       -2.14035522830598
H            7.07428776210402        2.03250866406577        0.58744952438600
H            7.06665651103097        0.91446642550784        1.94958476604858
H            8.51193494191216        1.07605188059930        0.95599109705910
H            7.25130971778096       -0.59540318150936       -2.08298893800696
H            8.63569136203583        0.15644900889140       -1.30012844372694
H            7.26914794876047        1.15251801984164       -1.78486013587381
H            8.48736731111158       -1.45544184718829        0.52338398222671
H            7.03205321650042       -2.20809467468462       -0.13468277970831
H            7.04335514483844       -1.60385151815686        1.52077912805524
H            5.22528779938736       -0.38665620513881        2.07581849918061
H            2.78456372438734       -0.36808075008828        2.09833828960369
