73
 energy: -105.173681838160 gnorm: 0.000048249199 xtb: 6.7.1 (edcfbbe)
C           -1.53302252394281        4.98933344681178        0.02595861256501
C           -0.82462737305020        3.67197785458501        0.02127568549872
C            0.56891382704886        3.61631036942467        0.03988572046513
C            1.23121765504923        2.41088255644125        0.04798702737638
C            0.51766407612511        1.20551938209274        0.03730711462440
C           -0.88189237975390        1.24907570826509        0.02130262053826
C           -1.52534551073499        2.47773886570381        0.01310782069576
C           -1.72160683935963       -0.00245907745042        0.00723151868994
C           -2.53553015574512       -0.00948305631458       -1.27799786224095
C           -1.84322179901881       -0.02477675554269       -2.47589323463571
C           -2.51093484130080       -0.02877509237531       -3.69019811392241
C           -3.90112051272647       -0.01683328740837       -3.70527995178340
C           -4.60612550767411       -0.00184499258780       -2.52798804207395
C           -3.93530573585018        0.00189319823486       -1.28748956298081
C           -4.72853326844333        0.01696026219037       -0.08101799639951
O           -5.99338174897955        0.02840880679342       -0.11775658684589
C           -4.00717157640350        0.01713882116481        1.17015212925446
C           -4.74885199680017        0.02806699646699        2.36943243823387
C           -4.11317101859699        0.02831608424549        3.58575970547129
C           -2.72447551634549        0.01764869150457        3.65141748549140
C           -1.98743410106756        0.00711726833031        2.47792683582464
C           -2.60915024067247        0.00669606875726        1.24177848049103
C           -0.88209259839849       -1.25361060749235        0.03656323909173
C           -1.52601377121650       -2.48228316749996        0.04364097769577
C           -0.82562176050091       -3.67630747062245        0.06110720739378
C           -1.53135160384590       -4.99512742562022        0.06699732495078
C            0.56831573469377       -3.62083611247269        0.06836742895357
C            1.23090931209492       -2.41578254909704        0.06180659785258
C            0.51742882383900       -1.21022998778110        0.04858154510863
N            1.18665175608019       -0.00243420387900        0.04511154843094
C            2.61088912659244       -0.00203555775408        0.04364478135327
C            3.30640477253753        0.03967282500836       -1.15672691866716
C            4.68698847818437        0.04100387464091       -1.15092180176568
C            5.41225803588179        0.00105238738886        0.03860738642895
C            6.93125061153895        0.00500165919387       -0.01335133166027
C            7.56980902733396       -0.03911103848621        1.37734324147153
C            7.40235429703678        1.28587364594378       -0.71667596983752
C            7.40587402994536       -1.22618897712218       -0.79824546640731
C            4.69686699054042       -0.04094336465271        1.22978413598442
C            3.31281884852138       -0.04247211456872        1.23782929353079
H           -1.44313256292930        5.45916300368289        1.00574251799407
H           -2.58871734561617        4.86203538900461       -0.19734040213312
H           -1.09435194466703        5.66397903994306       -0.70724877162172
H            1.13836223803994        4.53422199113291        0.04769844557689
H            2.31034252745690        2.39170884609095        0.06270531537935
H           -2.60556593473050        2.48965027549528       -0.00080847512774
H           -0.76132077960833       -0.03365927380997       -2.45756942710629
H           -1.95161692185120       -0.04078701717666       -4.61341840912433
H           -4.43127189119557       -0.01943205527006       -4.64687939140312
H           -5.68541030569521        0.00743067127074       -2.51312037396282
H           -5.82546355906863        0.03615809190057        2.29217127646694
H           -4.69707250554016        0.03681780585079        4.49497316872088
H           -2.21965814251129        0.01776186874602        4.60559966304183
H           -0.90618303210889       -0.00074023027874        2.52166797999929
H           -2.60630879426589       -2.49344576879984        0.03437204268489
H           -1.22739095335204       -5.58493102134030        0.93099974158128
H           -2.60861397048615       -4.85795713095238        0.09854452297865
H           -1.27826937761194       -5.56345918773889       -0.82765270584835
H            1.13719842155540       -4.53907878064421        0.07903867476209
H            2.31013021301768       -2.39664960326636        0.06636257144229
H            2.76080730238533        0.07155965288177       -2.08824026137830
H            5.20224585490149        0.07391176143265       -2.09833565827132
H            7.28445009833708        0.82824596285045        1.96811870017822
H            7.28820377254883       -0.94431298517303        1.91030728461958
H            8.65302186704610       -0.03361871617644        1.27710760966977
H            7.03411659821475        1.33873592258920       -1.73734892800860
H            8.48911984465053        1.31671211952347       -0.74586637502271
H            7.04715104191557        2.16289968793332       -0.17948465604452
H            8.49266047360218       -1.24993875210950       -0.83260669559106
H            7.03433634479427       -1.21564595250491       -1.81904638482551
H            7.05640822152421       -2.13732969751700       -0.31698755074075
H            5.20852386173319       -0.07283605725692        2.17718442972698
H            2.77251909642297       -0.07539319326849        2.17247436542637
