53
 energy: -89.176361031808 gnorm: 0.000081009888 xtb: 6.7.1 (edcfbbe)
C           -7.38701230412992        2.84530756555490       -0.41053162255453
C           -7.99761428364764        1.59198401449094       -0.38110168886498
C           -7.25649617545556        0.42691202634635       -0.25392090405137
C           -5.88768923135516        0.56031856579071       -0.15865126021355
C           -5.24885028948048        1.83714240959565       -0.18650111962264
C           -6.01841677638457        2.99068796186284       -0.31490684961587
N           -3.89121311002104        1.71172841337290       -0.07359543509952
C           -3.68996813478213        0.41428525850829        0.01574812534058
N           -2.60917886847341       -0.41356496773044        0.14161623634283
C           -1.29790003261311       -0.01712573744459        0.20161889577651
C           -0.93288695388396        1.35321538532598        0.05254146952053
C            0.37918522369455        1.68678805957035        0.03517118436275
C            1.40590414712020        0.67703112783949        0.16834584462147
C            2.78638980350021        0.95682923808572        0.16111708665804
C            3.27704725572070        2.29707514321459        0.31373308383229
C            4.60600839773701        2.61393891791398        0.28437409772346
C            5.52228289471220        1.57758624550640        0.09218351633737
O            6.87427981530299        1.68239435888253        0.02395684380266
C            7.34755409254361        0.42113063745911       -0.17558752476913
C            8.67436593993664        0.05384623679105       -0.30908595575012
C            8.94321161574005       -1.29003891731192       -0.50874901400302
C            7.92291810285318       -2.23319165245263       -0.57255686048583
C            6.59576354886728       -1.86327543056895       -0.43842720161032
C            6.30284786886842       -0.52389127665600       -0.23771832052482
C            5.08861542648643        0.23675914898480       -0.05914213069236
C            3.75430268390500       -0.08058363997750       -0.01928172449528
C            0.89036936915864       -0.65372789015213        0.37772197894876
N           -0.35994248454105       -0.97432130765735        0.40404949177659
C           -3.11075430267983       -1.71682342439339        0.17706317547481
C           -2.46182384244898       -2.93578602624860        0.28983756330902
C           -3.23847864069937       -4.08072789970133        0.30944819762075
C           -4.62784480055454       -4.02465395377823        0.21265955342535
C           -5.29181894348473       -2.81582440369745        0.09378065884919
C           -4.52562098510237       -1.66568453793740        0.07553922876026
N           -4.85192797720028       -0.33658759464516       -0.02647992467463
H           -8.00671352921476        3.72393535784730       -0.51149718406994
H           -9.07225518548429        1.52620348385230       -0.45924707610791
H           -7.73369152260466       -0.54057871716557       -0.23127077301770
H           -5.54517352525663        3.95862516731735       -0.33819055679011
H           -1.71562164596633        2.08063955690941       -0.08942010204883
H            0.66135608904068        2.71320924316552       -0.13304756903999
H            2.56665851826097        3.08909455301913        0.48467229814639
H            4.94865132665822        3.62904320881077        0.40843360369991
H            9.46068759359708        0.78974936794020       -0.25893837179374
H            9.96811432961194       -1.61133609423204       -0.61758267166147
H            8.17335013172465       -3.27154699669353       -0.73000423020759
H            5.80561214986671       -2.59664124350803       -0.48923094371548
H            3.44353965209677       -1.10224135064984       -0.16012773542594
H            1.56693005903592       -1.46178829300861        0.61906655795079
H           -1.38832905594186       -2.97156732721232        0.36204787474869
H           -2.75628865128020       -5.04178410266176        0.39837934242031
H           -5.19788151897066       -4.94085492282944        0.22801558042873
H           -6.36637059828973       -2.76960736298241        0.01787384062120
