  53
        -89.17321315
 C         -7.4002852558        2.8142918377       -0.3244003256
 C         -8.0058657731        1.5580966083       -0.3292525301
 C         -7.2592671443        0.3922272617       -0.2362832834
 C         -5.8914301398        0.5282262817       -0.1406289339
 C         -5.2568194742        1.8086850243       -0.1330990529
 C         -6.0324067680        2.9627981220       -0.2270368189
 N         -3.9003167864        1.6861001314       -0.0269973057
 C         -3.6924513850        0.3860032321        0.0240326588
 N         -2.6073852713       -0.4406003708        0.1207146767
 C         -1.2983737258       -0.0418390416        0.1847745396
 C         -0.9370512199        1.3289998447        0.0498598524
 C          0.3756953556        1.6658252875        0.0396328567
 C          1.4028373423        0.6602458238        0.1723020841
 C          2.7838556621        0.9479889721        0.1887410739
 C          3.2626536778        2.2888198296        0.3661481914
 C          4.5899936539        2.6154096251        0.3603338029
 C          5.5158739575        1.5877286264        0.1711089813
 O          6.8675404209        1.7014427781        0.1261380383
 C          7.3526217670        0.4454926580       -0.0776220873
 C          8.6841014113        0.0884252281       -0.1922288739
 C          8.9654972572       -1.2519252096       -0.3989197602
 C          7.9530271103       -2.2012268466       -0.4874528798
 C          6.6209177858       -1.8412922398       -0.3728494145
 C          6.3153638503       -0.5058163417       -0.1661530867
 C          5.0930674424        0.2452725651       -0.0013392558
 C          3.7604411203       -0.0802506795        0.0120457934
 C          0.8928802660       -0.6721355643        0.3577815799
 N         -0.3577454566       -0.9976870832        0.3736838985
 C         -3.1037830529       -1.7464918416        0.1174223152
 C         -2.4494147436       -2.9651852654        0.1893210514
 C         -3.2207943007       -4.1140212968        0.1743749370
 C         -4.6112272936       -4.0606626390        0.0833084308
 C         -5.2809376173       -2.8520486560        0.0058907370
 C         -4.5201124650       -1.6977952755        0.0221310866
 N         -4.8516414157       -0.3680596503       -0.0364611470
 H         -8.0237189177        3.6929065237       -0.3995359092
 H         -9.0802688129        1.4896450579       -0.4077648326
 H         -7.7330811975       -0.5771676967       -0.2400932583
 H         -5.5634189374        3.9330281710       -0.2227567533
 H         -1.7205773573        2.0560260437       -0.0906962453
 H          0.6548086450        2.6941519520       -0.1228873812
 H          2.5446049787        3.0742149135        0.5355097080
 H          4.9234444368        3.6314453806        0.5007037702
 H          9.4642000016        0.8293035700       -0.1224177367
 H          9.9942081089       -1.5654088744       -0.4931317008
 H          8.2131099032       -3.2366259644       -0.6486232601
 H          5.8369919026       -2.5796935894       -0.4429413673
 H          3.4591988496       -1.1026111960       -0.1438935034
 H          1.5701988117       -1.4835213361        0.5851325658
 H         -1.3754938477       -2.9988053763        0.2568818816
 H         -2.7340467093       -5.0751450063        0.2305270690
 H         -5.1770334852       -4.9795212927        0.0697434510
 H         -6.3559074960       -2.8081131056       -0.0654646049
