53
 energy: -89.273780172567 gnorm: 0.000052752713 xtb: 6.7.1 (edcfbbe)
C           -6.29132431698141        3.90697738145917        0.42528023638853
C           -7.22947501618812        2.91736587806426        0.13731491108435
C           -6.85366573925981        1.60135328509566       -0.05934422601490
C           -5.50676469956057        1.30949976238683        0.04170371152441
C           -4.54023710911282        2.31087708610043        0.33446584712817
C           -4.94355178572534        3.62430202642090        0.52798181830577
N           -3.27035247031629        1.77041442555025        0.38018875670930
C           -3.45450578742034        0.50559756362980        0.12889433080541
N           -2.66357381963886       -0.60786340141239        0.01557597051819
C           -1.28329831927994       -0.62932754639530        0.15921717316045
C           -0.58522866736124        0.54854645349509        0.44428429665043
C            0.78406499588537        0.47173522873006        0.57403856388369
C            1.43494765037580       -0.75692640622828        0.42379954815718
C            2.89225055748354       -0.88112720451827        0.54224461408101
C            3.45038186235252       -1.98689331998739        1.19770760540672
C            4.81600302771496       -2.14969611186178        1.32656767027686
C            5.62976531925247       -1.17660202071321        0.77407029521955
O            6.98975703986175       -1.15273005390934        0.78305959416779
C            7.35533712804766       -0.01830145090720        0.12363740502300
C            8.64736687439328        0.41562220288506       -0.11191587389330
C            8.80015257850485        1.60209496030246       -0.80720151517048
C            7.70072453679393        2.33160299791810       -1.25233957467694
C            6.41089157749309        1.89772597701989       -1.01659030605823
C            6.23342746129316        0.70922721832893       -0.32121206970607
C            5.09286107508198       -0.05565707972452        0.10948184780157
C            3.71973154183435        0.09377330759636       -0.00268044020564
C            0.63106599382419       -1.85790724015254        0.14134731429678
N           -0.68051939275867       -1.80229728482713        0.01181379029081
C           -3.51348853086631       -1.68011479758606       -0.27731090726096
C           -3.24559395666717       -3.01933001535527       -0.49281870844443
C           -4.31763935031612       -3.85394619053212       -0.76958395772647
C           -5.61996387542052       -3.37632119731305       -0.83116653713083
C           -5.90246976988123       -2.03686899367354       -0.61683791194023
C           -4.83991159682937       -1.19881211633506       -0.34061380276851
N           -4.77345322069818        0.15277363455883       -0.08527496937573
H           -6.63161625721231        4.92151537041043        0.57139477986895
H           -8.27325135603484        3.18427751180356        0.06618548011069
H           -7.58150250999629        0.83639125254988       -0.28215356611600
H           -4.21830295724710        4.39000816697506        0.75080658480568
H           -1.12356264123723        1.47506964261048        0.55899591877821
H            1.35414353100156        1.35799153266369        0.81155737123525
H            2.79019668830500       -2.72218888826513        1.63222484681386
H            5.23801505968067       -2.99979059524303        1.83799771889022
H            9.49462144529803       -0.15365139083182        0.23506307658872
H            9.79474592540519        1.97004952421581       -1.00927536029697
H            7.86366372389420        3.25261235758218       -1.79176412760028
H            5.55930105077350        2.46329593586730       -1.36248682036671
H            3.30344208608729        0.94100928813813       -0.52590930552978
H            1.06351766956456       -2.83831102527045       -0.01033685664672
H           -2.23521766265000       -3.38610649077210       -0.44503669452408
H           -4.13244869696309       -4.90317768622517       -0.94175200005764
H           -6.42791313094967       -4.05768507940528       -1.04972432351309
H           -6.91154376360794       -1.66007638490066       -0.66356522294527
