53
 energy: -89.273808067497 gnorm: 0.000066594129 xtb: 6.7.1 (edcfbbe)
C           -7.26167778091702        2.91385789093934       -0.70958620583917
C           -7.91619717969325        1.68782479750696       -0.60555425362471
C           -7.21911000183096        0.51290661991640       -0.39235703261827
C           -5.84451333891646        0.60685101872485       -0.28662389083328
C           -5.16565134035219        1.85222439829289       -0.39079593615884
C           -5.88856771262013        3.01695149980976       -0.60515865777318
N           -3.80241379140971        1.68252008324727       -0.25084894816399
C           -3.65898023174512        0.40044678117319       -0.07082815578094
N           -2.61274046255651       -0.46088569366659        0.13352551367973
C           -1.27557466013005       -0.09592806516794        0.20414616924909
C           -0.90017304758190        1.24203363142714        0.04652388347728
C            0.44060941592477        1.54955548499145        0.12003081872986
C            1.38053369768988        0.53916166671310        0.34761303992362
C            2.81821579632386        0.81895249263139        0.43463178000202
C            3.26632164450425        1.97358881693062        1.09056057242262
C            4.60878736205690        2.27744827517988        1.20575185610859
C            5.51322622393740        1.39579953405773        0.64113882026555
O            6.86861007833272        1.51013467255271        0.64129834901500
C            7.34301861523341        0.42021950334482       -0.02373548955725
C            8.67105755240454        0.11805882792404       -0.26485738177149
C            8.93904645301516       -1.04605682276362       -0.96305051791743
C            7.91629403211130       -1.88079702562024       -1.40608304835794
C            6.59043864545141       -1.57838876617710       -1.16481432242166
C            6.29770326284616       -0.41510691240266       -0.46579563881803
C            5.08817996757248        0.22878123444515       -0.02524779604849
C            3.73678350945260       -0.06080662394756       -0.12655960569341
C            0.88268616593210       -0.75301663493836        0.49321720338736
N           -0.39693422870546       -1.06570700415771        0.42437054061187
C           -3.16108885205120       -1.74250606002602        0.25423451928731
C           -2.56251790743396       -2.97055587069319        0.46706198427050
C           -3.38563906198506       -4.08391629765820        0.54046036660272
C           -4.76413535244434       -3.98484830776207        0.40671415917205
C           -5.37686488105433       -2.76056567101039        0.19323158010511
C           -4.56379907559185       -1.64651862932464        0.11902272910518
N           -4.84273276517597       -0.31281158499919       -0.08029043150906
H           -7.84785674144910        3.80547957584529       -0.87640190629885
H           -8.99182156835474        1.65465650280259       -0.69332633394167
H           -7.72761032343006       -0.43552542177888       -0.31194067520992
H           -5.38277480567585        3.96543925587449       -0.68567130163286
H           -1.65366930068045        1.99157767301859       -0.13185216416053
H            0.76763020140300        2.56955197880657       -0.01890986045025
H            2.53938038062393        2.63435921904361        1.53822842831726
H            4.94552608931278        3.16470537881850        1.71733803214782
H            9.45843024822390        0.76833308761272        0.08082395321755
H            9.96468925660518       -1.31287339685850       -1.16871971458445
H            8.16843498175185       -2.78014395360635       -1.94775865672745
H            5.79826515982168       -2.22569636058841       -1.50858193589671
H            3.40502703018758       -0.94323295659129       -0.65170183774238
H            1.54495005721857       -1.58464592536065        0.69595051057519
H           -1.49410542782864       -3.04376655900565        0.57097538544228
H           -2.94060809157108       -5.05311793861364        0.70610476125012
H           -5.37119211169555       -4.87497484771351        0.46964928197510
H           -6.44668195349348       -2.67732501955792        0.08863496498759
