86
 energy: -145.643115364183 gnorm: 0.000054738241 xtb: 6.7.1 (edcfbbe)
O           -0.00003074119623        1.81733539739369        4.49791305272383
S           -0.00001433143039        0.65278880751624        3.65581740051105
O           -0.00000176420176       -0.63088804877974        4.31326923592100
C           -1.40359207805412        0.70402208440208        2.55811296781777
C           -2.62044223830621        1.07823765220740        3.10300460308458
C           -3.77017124102764        1.02433048969580        2.34342407709950
C           -3.68698184900857        0.59890216385060        1.01704181037336
N           -4.84478047453699        0.47743726016574        0.22999034167190
C           -5.19877099869732       -0.76010912683867       -0.32334599847217
C           -4.45848654362737       -1.91639985601069       -0.10907111197071
C           -4.84468218504747       -3.12325063744127       -0.67213159973475
C           -5.98390011327356       -3.20017330828215       -1.44707990736155
C           -6.75360037940240       -2.06336558565485       -1.64141495900121
C           -6.37350236204064       -0.85749102989555       -1.08113830323453
O           -7.20928425907688        0.21037192715272       -1.29033500066065
C           -6.83812743242565        1.41993498883294       -0.76008598821332
C           -7.66991057127347        2.49561944516102       -1.01127192010082
C           -7.34359208004198        3.75812147073528       -0.53935428985488
C           -6.17005766887122        3.93816488676336        0.16425357155192
C           -5.33379679831688        2.86213346184701        0.42046936278256
C           -5.66557654740876        1.58439994976776       -0.01169160712534
C           -2.45203146556594        0.26879187899792        0.47162111570518
C           -1.28937111714402        0.30705653457607        1.23598154840919
C            0.00000794523799       -0.15777632162982        0.60227615883863
C            0.00002183961232        0.14573129823324       -0.88502716621615
C            0.00002392709090        1.37991648245302       -1.49782899050025
C            0.00003091263402        1.42884305210320       -2.88594560975107
C            0.00003407206294        0.26286059554412       -3.63665402876536
C            0.00001447594201       -0.98020854818750       -3.02331940982391
C            0.00001566272667       -1.03597734733269       -1.63931922891137
C            0.00002018444490       -2.16749040618786       -0.72468801281199
C            0.00001468578184       -3.53102855065986       -0.96633976876427
C           -0.00000046679072       -4.39515794311252        0.11713315932709
C            0.00001828363842       -3.90949193340418        1.41598742818953
C            0.00002425284995       -2.54280852993091        1.66951312807256
C            0.00001992123387       -1.68541803402414        0.59138592411042
C            1.28936962021678        0.30707977759470        1.23599400717324
C            2.45203603059052        0.26884882232081        0.47163955537798
C            3.68697205017463        0.59900109474125        1.01706551261733
N            4.84478143732429        0.47756161283283        0.23002462493299
C            5.19881187932843       -0.75997704679152       -0.32330384361587
C            4.45857557944692       -1.91629421028172       -0.10900655743895
C            4.84481003689888       -3.12313646889929       -0.67205897146292
C            5.98402531792571       -3.20002550849298       -1.44701497275983
C            6.75367498210149       -2.06318848806705       -1.64137898785706
C            6.37353542672946       -0.85732129675477       -1.08111369663332
O            7.20926852026790        0.21057345976711       -1.29034074791594
C            6.83807405602446        1.42012636002715       -0.76009523173266
C            7.66980622569053        2.49584206517984       -1.01131348891454
C            7.34343958652528        3.75833869146461       -0.53941348882341
C            6.16991083680608        3.93834282963534        0.16421443935470
C            5.33370657066150        2.86227698899362        0.42047268535402
C            5.66553164895247        1.58455245534359       -0.01168010041636
C            3.77014200566628        1.02443468261241        2.34344796162610
C            2.62040740856392        1.07830022191158        3.10302368033500
C            1.40357107400458        0.70405171731131        2.55812430384151
H           -2.63921997696138        1.38960001525503        4.13544764275124
H           -4.72776799491022        1.28350420586704        2.76784334056882
H           -3.57741978408827       -1.88539892993254        0.51219985188559
H           -4.24357895668866       -4.00093223171334       -0.49127040259054
H           -6.28694830213438       -4.13542514285074       -1.89033804196712
H           -7.66211953888715       -2.09123563709924       -2.22139637373012
H           -8.56738740116403        2.32371028299153       -1.58350914398583
H           -8.00061321313065        4.59039460188046       -0.73580387840194
H           -5.89038951125693        4.91818605320972        0.51864391239417
H           -4.41081424798986        3.02094859667188        0.95559696948605
H           -2.40632601661388       -0.03391981610125       -0.56381349889924
H            0.00000406851115        2.28737387482256       -0.91184369418226
H            0.00000000480355        2.38596191019490       -3.38538380547144
H            0.00000498914719        0.32525143204918       -4.71475486879883
H            0.00001749978139       -1.88475593790348       -3.61217467709287
H            0.00002243752888       -3.91177431929151       -1.97650981680906
H            0.00003049491400       -5.46194718861555       -0.05245986984857
H            0.00001795059496       -4.60071133929748        2.24508826383043
H            0.00001026638726       -2.16713617826177        2.68213615977077
H            2.40634693062495       -0.03388043032152       -0.56379100095096
H            3.57752678972583       -1.88532498582018        0.51229121528546
H            4.24375381145977       -4.00084298945797       -0.49116600225667
H            6.28709773719249       -4.13526836424537       -1.89027383161983
H            7.66217685685645       -2.09102663819415       -2.22138858041830
H            8.56727855936314        2.32396317764491       -1.58356557263325
H            8.00043701586076        4.59063040691747       -0.73586066052125
H            5.89023228494249        4.91834783311554        0.51864001148888
H            4.41073696052660        3.02105663348437        0.95563213323636
H            4.72773025343210        1.28362598934069        2.76787623042935
H            2.63916828176249        1.38967473518344        4.13546332105265
