86
 energy: -145.644044969212 gnorm: 0.000038657799 xtb: 6.7.1 (edcfbbe)
O            0.00165882442652        3.48410511839544       -3.04557411108622
S            0.00155524274826        3.09196658818441       -1.66306657619242
O            0.00296001099819        4.14802383628412       -0.68091098089970
C           -1.39501036720157        2.03672584530860       -1.33149920213357
C           -2.59187396379192        2.32809191221652       -1.96365826074485
C           -3.72180041216777        1.58649349550145       -1.68960925157754
C           -3.65210351417176        0.56737545387610       -0.73815980746830
N           -4.78937073865328       -0.19808185360850       -0.42921101306009
C           -5.95304378180520        0.41738829236792        0.04891632573832
C           -6.00935830891974        1.77453261572351        0.34006536619816
C           -7.17967898010386        2.35310506042386        0.80712830854221
C           -8.30854901325170        1.58405175951292        1.00495923728301
C           -8.25641585821618        0.22042398365673        0.75959814277379
C           -7.09055308347101       -0.36136775838498        0.29631183578921
O           -7.10599387283041       -1.72125843941775        0.11513202508775
C           -5.94379532086184       -2.31798304473580       -0.30187626621230
C           -5.96982999367105       -3.69303161312192       -0.44781601557827
C           -4.84993362088054       -4.37148530430151       -0.90350827199122
C           -3.71483138775902       -3.65951791589943       -1.23245588287213
C           -3.68342077530747       -2.28124246763183       -1.08648758924199
C           -4.78251400187747       -1.58933519480956       -0.59308570358865
C           -2.44523410969936        0.29433739359127       -0.10483829251742
C           -1.28727510604896        1.00149264158535       -0.41744616728488
C           -0.00081316947614        0.60942142273225        0.27270627418994
C           -0.00174403955365       -0.88893511706054        0.52638771326041
C           -0.00253357596594       -1.90418948450772       -0.40517848595794
C           -0.00230112377171       -3.21688080085585        0.04755436167837
C           -0.00122646360172       -3.49732848368677        1.40500512029893
C           -0.00043176940766       -2.47797539049684        2.34440077122866
C           -0.00069374118911       -1.16596993128478        1.89990853686605
C            0.00065614880057        0.09753722024724        2.62337682860115
C            0.00243242971175        0.36685254036425        3.98180796939554
C            0.00413395035929        1.68998186144063        4.39453298196126
C            0.00403736444996        2.72468887171942        3.47144843881267
C            0.00217982369763        2.46591236426115        2.10587537611091
C            0.00046874011786        1.15059810107148        1.69757619919138
C            1.28643229388050        0.99923553755395       -0.41738734659323
C            2.44329095808268        0.29085748910006       -0.10349144867853
C            3.65108233973791        0.56259126956728       -0.73549834915060
N            4.78789008141709       -0.20246827299732       -0.42387592922639
C            5.94948458665112        0.41397908685673        0.05803363209972
C            6.00352875003613        1.77110700379192        0.34966081272181
C            7.17182031051138        2.35072867488729        0.82045520863109
C            8.30083908573982        1.58273266824108        1.02153137490578
C            8.25080805874812        0.21910215366173        0.77573838613671
C            7.08694170033759       -0.36374533222832        0.30877266111669
O            7.10409325383348       -1.72358951115700        0.12738901016000
C            5.94259458172858       -2.32167844233217       -0.28968835603257
C            5.96916101644972       -3.69708802233778       -0.43202786476335
C            4.85012516127328       -4.37692565453876       -0.88779647407730
C            3.71538670493832       -3.66606481403249       -1.22037584502546
C            3.68336891832033       -2.28742890392477       -1.07785632065831
C            4.78153907026762       -1.59406405599380       -0.58445335759086
C            3.72271505375540        1.58104391185061       -1.68752886181793
C            2.59381308733595        2.32363316610151       -1.96309843057517
C            1.39610216363420        2.03398094537707       -1.33173193379792
H           -2.60312280205493        3.13286023834420       -2.68168878026449
H           -4.65281643673305        1.78705115345075       -2.19694274036227
H           -5.13015167630444        2.38553669784329        0.20994044359905
H           -7.19564077486925        3.41123647828140        1.01723930988223
H           -9.22342197178125        2.03049843514865        1.36078971069049
H           -9.11156020901449       -0.41464262729299        0.92669840989689
H           -6.88274354783613       -4.21296652912001       -0.20544221586740
H           -4.87863194232066       -5.44422700967758       -1.01019615608688
H           -2.84104802589897       -4.16674883643027       -1.61072408645480
H           -2.79398994160966       -1.74253206195054       -1.37031892898240
H           -2.41459099823638       -0.48423229681736        0.64266048600611
H           -0.00313620178820       -1.68276900994851       -1.46332148737050
H           -0.00287687739438       -4.02765048622219       -0.66500644872137
H           -0.00092790374757       -4.52549076820893        1.73467227599550
H            0.00054288054909       -2.70301732703253        3.40011513593065
H            0.00261828299453       -0.43623620471001        4.70348898814560
H            0.00564189328837        1.91808162144567        5.45031509527101
H            0.00550140991237        3.74762262394813        3.81619009546432
H            0.00221820468616        3.27180246943624        1.38690856482473
H            2.41117479999373       -0.48719851816020        0.64446604575163
H            5.12413956882707        2.38127696276439        0.21688794948442
H            7.18605688548204        3.40881511968911        1.03090399775075
H            9.21418229668614        2.03002924519275        1.38020605759414
H            9.10608363053819       -0.41513402440704        0.94528114389686
H            6.88181985587571       -4.21619192333331       -0.18691264810504
H            4.87922002326757       -5.44993509923255       -0.99166779581656
H            2.84234573866707       -4.17449298404161       -1.59875833473643
H            2.79425113044292       -1.74963430131759       -1.36443990998346
H            4.65457403287855        1.78063753065247       -2.19369183047941
H            2.60662317361963        3.12816018053391       -2.68137231031011
