  86
       -145.55059045
 O         -0.0156039721       -4.1364267263       -0.7391185471
 S         -0.0011281916       -3.0631583614       -1.7080738215
 O          0.0024274532       -3.4528107889       -3.0946862726
 C         -1.3760688168       -1.9945082004       -1.3841011137
 C         -2.5633778148       -2.2206138198       -2.0747474232
 C         -3.6854836429       -1.4769883793       -1.7935742026
 C         -3.6248448139       -0.5153497814       -0.7793430273
 N         -4.7717227786        0.2422422963       -0.4462934699
 C         -4.7781791628        1.6238797366       -0.6025709056
 C         -3.6798356196        2.3279385269       -1.0911442795
 C         -3.7241439648        3.7041619947       -1.2223385828
 C         -4.8683169983        4.4069844002       -0.8844364969
 C         -5.9817526381        3.7220470325       -0.4272431015
 C         -5.9449089616        2.3445902403       -0.2900209608
 O         -7.0888483456        1.7317703072        0.1397812525
 C         -7.0576665512        0.3763240039        0.3175415454
 C         -8.2093268064       -0.2272260267        0.7928496787
 C         -8.2347584417       -1.5925102436        1.0247702921
 C         -7.0961644406       -2.3478655186        0.7972737276
 C         -5.9426792613       -1.7533618809        0.3189486862
 C         -5.9079562651       -0.3870847888        0.0484700192
 C         -2.4273666338       -0.2859870386       -0.1022270439
 C         -1.2780326629       -0.9959294796       -0.4174123079
 C          0.0036486436       -0.6444464658        0.3041502414
 C         -0.0046097215       -1.2372978235        1.7077025151
 C         -0.0162442188       -2.5649519123        2.0700794664
 C         -0.0246023778       -2.8735882069        3.4261985416
 C         -0.0215215149       -1.8717903654        4.3863846800
 C         -0.0099309343       -0.5359330117        4.0220068788
 C         -0.0014359413       -0.2158392161        2.6723291001
 C          0.0089957914        1.0693578044        1.9984459483
 C          0.0176996610        2.3681259644        2.4884951765
 C          0.0268006168        3.4191261502        1.5868285621
 C          0.0264941782        3.1887636785        0.2185690114
 C          0.0177950211        1.8911879326       -0.2796920236
 C          0.0098580953        0.8436254424        0.6133920229
 C          1.2863192811       -1.0064322010       -0.4107368042
 C          2.4362185190       -0.2988033066       -0.0993886360
 C          3.6360432436       -0.5401976618       -0.7723994853
 N          4.7794459021        0.2273259770       -0.4461980556
 C          4.7658800104        1.5956020384       -0.6286731879
 C          3.6730018665        2.2827874551       -1.1673812140
 C          3.7016123853        3.6500042897       -1.3117071889
 C          4.8371659303        4.3847723138       -0.9371969075
 C          5.9433312256        3.7293298333       -0.4418510994
 C          5.9313130945        2.3482357327       -0.2879622643
 O          7.0583801971        1.7510901336        0.1695760870
 C          7.0610539130        0.4061923531        0.3368961119
 C          8.2212323996       -0.1900786193        0.8149308525
 C          8.2623777936       -1.5487125890        1.0429130923
 C          7.1186552680       -2.3301819846        0.8132444220
 C          5.9639318572       -1.7578887471        0.3342159956
 C          5.9067003845       -0.3874802155        0.0565366770
 C          3.6976236957       -1.5116155239       -1.7790421603
 C          2.5721237510       -2.2478178977       -2.0603881845
 C          1.3818006133       -2.0114408213       -1.3741086784
 H         -2.5645268784       -2.9861663976       -2.8340867802
 H         -4.6072772470       -1.6312813042       -2.3335495007
 H         -2.7883058489        1.7928242915       -1.3726426157
 H         -2.8562818295        4.2252826570       -1.5941291631
 H         -4.9026894938        5.4802193482       -0.9842675454
 H         -6.8953285076        4.2356013007       -0.1743492438
 H         -9.0716568579        0.3924349617        0.9791505026
 H         -9.1357550075       -2.0572734014        1.3917646834
 H         -7.0997163272       -3.4082793761        0.9952174165
 H         -5.0570420674       -2.3469204221        0.1591141174
 H         -2.4064046788        0.4595332652        0.6787229976
 H         -0.0187555497       -3.3443618291        1.3226225755
 H         -0.0340380710       -3.9082537639        3.7342007412
 H         -0.0287830102       -2.1380498411        5.4336073213
 H         -0.0082819521        0.2411192772        4.7721767541
 H          0.0179057084        2.5555343037        3.5518166533
 H          0.0346473980        4.4353856688        1.9529451757
 H          0.0340118607        4.0248525353       -0.4643502696
 H          0.0178393389        1.7070018064       -1.3452277182
 H          2.4186593910        0.4551563013        0.6733504278
 H          2.8010857466        1.7280191407       -1.4730502113
 H          2.8453120319        4.1599115035       -1.7223142108
 H          4.8492050496        5.4564878504       -1.0506765939
 H          6.8397764485        4.2627022136       -0.1679475446
 H          9.0753328168        0.4403428729        1.0058234438
 H          9.1650515315       -2.0082993598        1.4113196775
 H          7.1439639304       -3.3882059905        1.0188762993
 H          5.0855344935       -2.3628020914        0.1747033721
 H          4.6201970824       -1.6716227682       -2.3157812513
 H          2.5701124131       -3.0158729473       -2.8170389441
