86
 energy: -145.552729873340 gnorm: 0.000206317371 xtb: 6.7.1 (edcfbbe)
O           -0.00422776984806        3.49595770933767       -3.02110019973760
S           -0.00585189666751        3.09025548370147       -1.63962400913159
O           -0.00233223800791        4.15065748105679       -0.65734213186049
C           -1.38303628551213        2.02427518359814       -1.32609050745513
C           -2.57473003569806        2.27164021408177       -2.00610208178651
C           -3.69815690604448        1.52835555748787       -1.73641889786030
C           -3.63275410540581        0.53778504239948       -0.74877386508409
N           -4.77875596203853       -0.23192107938698       -0.43416818622286
C           -5.90049925145204        0.38260749136133        0.07328351681876
C           -5.94303897986393        1.74564976432842        0.39791444177507
C           -7.09578795910877        2.31840887610396        0.87259064342066
C           -8.26175476348045        1.54587571503287        1.05126792068560
C           -8.23822636098890        0.19676256163989        0.77878912724351
C           -7.07754308850140       -0.40486465106018        0.30636888350815
O           -7.08827621093946       -1.74032361831332        0.09352198510389
C           -5.96365163608025       -2.34048877495329       -0.35763796027190
C           -5.99167598858148       -3.71729838063149       -0.55773651909047
C           -4.88669364927145       -4.37236645752583       -1.04993311318763
C           -3.72812397006089       -3.64139703050336       -1.37864480753141
C           -3.68255295347791       -2.28155350897002       -1.19269063385321
C           -4.77578668888533       -1.59290869524071       -0.65382124822314
C           -2.43204256437330        0.28568076922806       -0.08196827684873
C           -1.28398118835665        1.00175796308520       -0.38186002169910
C            0.00013388809810        0.63353771069879        0.32734683462565
C            0.00115921278248       -0.85847400166510        0.61608309624224
C           -0.00134146698998       -1.89441198441493       -0.29114333103626
C           -0.00102009157956       -3.19801278675005        0.18999974508667
C            0.00170711421937       -3.44697456589040        1.55470127207913
C            0.00418167231427       -2.40765540422741        2.47038883610291
C            0.00402473085290       -1.10338509443003        1.99727589297326
C            0.00636678165571        0.17340041933213        2.68946278019211
C            0.01077334489177        0.47405149323709        4.04300485446269
C            0.01212151490465        1.80499967030022        4.42619109888258
C            0.00930474988008        2.81965215722145        3.47999462049068
C            0.00545008200968        2.53014992820608        2.11991036776132
C            0.00387491408455        1.20727072923881        1.73919762313384
C            1.28156030199695        1.00473273234840       -0.38506903635510
C            2.43438167585555        0.29046771912973       -0.08626091983357
C            3.63193253750197        0.54322957852681       -0.75169261256760
N            4.77678792141534       -0.22626920589572       -0.44370607934164
C            5.91850225426147        0.38356173088977        0.06984527343860
C            5.95925959434743        1.73921869642397        0.38149383294520
C            7.11576284083881        2.31466373815666        0.87985380766218
C            8.24796206904117        1.54829070882292        1.08633173343537
C            8.21491818605324        0.19001960555021        0.81296907437460
C            7.06167101930553       -0.39211176877730        0.31724868415152
O            7.08913854769668       -1.74372731327915        0.09850361926080
C            5.94249469796718       -2.33722222810533       -0.35693136651190
C            5.97662469223689       -3.70832815146514       -0.54122249852416
C            4.86337541732258       -4.37532827609413       -1.02723224121953
C            3.72438255093972       -3.65930127750571       -1.34420497062052
C            3.68354195615658       -2.28733475791756       -1.16358402302195
C            4.78058737742911       -1.60431493012252       -0.64701623141354
C            3.69356297256146        1.53742006679933       -1.73164042309285
C            2.56822659525664        2.28474704770647       -1.99561894443026
C            1.37957336981210        2.02849750103022       -1.32191708007386
H           -2.57586376964265        3.05458048242944       -2.74725182283340
H           -4.62278538029175        1.69791527654488       -2.26654245428584
H           -5.05169133635194        2.34073842178862        0.27626115213850
H           -7.11054792568675        3.36832394561749        1.11673297787600
H           -9.16332037539273        2.01007833565633        1.41567249844413
H           -9.10675719036828       -0.42465705075034        0.93014088559650
H           -6.90174586946140       -4.24500306831103       -0.31972858173754
H           -4.91019935368723       -5.43947914410107       -1.19872979190644
H           -2.87193746255028       -4.15360472455772       -1.78660343060385
H           -2.79604431593606       -1.73155150094618       -1.46385265256193
H           -2.41206092119211       -0.48164499290487        0.67742343455920
H           -0.00355650125633       -1.69631979244378       -1.35407785029116
H           -0.00343165336542       -4.02491886519780       -0.50396925808579
H            0.00160040205061       -4.46791929380880        1.90730040954687
H            0.00625490818514       -2.60899225930139        3.53111209696667
H            0.01325141957589       -0.31335768131935        4.78219266039208
H            0.01541514215808        2.05664765138959        5.47694665074354
H            0.01032557178796        3.85002419167087        3.80214311791537
H            0.00373489563825        3.32016573889172        1.38370977090194
H            2.41342426249967       -0.47886622360027        0.67121275950505
H            5.07725907483144        2.34283751396460        0.23893515596513
H            7.12300025067521        3.36889826841969        1.10854769251513
H            9.15135336891395        1.99597430152590        1.46874053503206
H            9.07355329243173       -0.43977150951116        0.98179777030721
H            6.88800874010349       -4.23262471991973       -0.30272172077609
H            4.89681907476404       -5.44436165192980       -1.16470005871224
H            2.85638173557444       -4.16325755158859       -1.73942304474728
H            2.79403576761603       -1.74075968444780       -1.43041123973737
H            4.61724732289990        1.71461180662256       -2.26114707184778
H            2.56982949632167        3.07367919872352       -2.73070691051888
