  60
        -95.63893186
 C          2.2984361401        2.9201651002        0.7621129053
 C          3.4529507089        1.9912538745        0.9573349624
 C          4.6257426654        2.4573321929        1.5415738353
 C          5.7215776102        1.6390052252        1.7795724263
 C          5.6800729627        0.2881829814        1.4708324193
 C          4.5286254526       -0.2138001687        0.8916015988
 C          4.1406878188       -1.5397355605        0.4911178193
 C          4.7664836707       -2.7752434707        0.5205568362
 C          4.0845264295       -3.8744680760        0.0245608462
 C          2.8024495012       -3.7494930118       -0.5072044569
 C          2.1593565337       -2.5272145332       -0.5455596875
 C          2.8310629708       -1.4251266372       -0.0320262680
 N          2.4240508516       -0.1126766286        0.0323802134
 C          1.2075152985        0.3454251301       -0.4831949719
 C          0.0035889612       -0.1195676605        0.0146985532
 C         -1.2046311956        0.3408478919       -0.4770240135
 N         -2.4178476131       -0.1186968635        0.0443554462
 C         -2.8251362585       -1.4315004346       -0.0150196862
 C         -2.1493504518       -2.5379567907       -0.5134950818
 C         -2.7938777823       -3.7594664340       -0.4726117271
 C         -4.0813744420       -3.8795329244        0.0469436150
 C         -4.7670245577       -2.7761978664        0.5285553161
 C         -4.1397961777       -1.5415219008        0.4966307101
 C         -4.5305108264       -0.2127745511        0.8849271749
 C         -5.6873279889        0.2945186762        1.4484573903
 C         -5.7296296387        1.6471264117        1.7490621389
 C         -4.6289404308        2.4617521524        1.5207167789
 C         -3.4506395059        1.9901484513        0.9524759504
 C         -2.2894202153        2.9137621504        0.7716225485
 C         -3.4285108507        0.6362861751        0.5989838383
 C         -1.2141495905        1.2364852223       -1.6248458077
 C         -2.4199372087        1.6235239787       -2.2006449122
 N         -3.4244858633        1.9564841455       -2.6678934195
 C         -0.0050965851        1.6424414248       -2.1715157246
 C          1.2083228658        1.2412271846       -1.6307338521
 C          2.4100137426        1.6342070285       -2.2107891861
 N          3.4103879971        1.9739235837       -2.6825438447
 C          3.4306244960        0.6384655911        0.5994684835
 H          2.3678427792        3.7569849904        1.4532120175
 H          1.3515326674        2.4073450087        0.9151147992
 H          2.3067655380        3.3174961449       -0.2524927097
 H          4.6784426517        3.4986350588        1.8231209649
 H          6.6088482350        2.0607305896        2.2262850664
 H          6.5185379242       -0.3576059238        1.6794239021
 H          5.7654373337       -2.8761534779        0.9159535946
 H          4.5565670727       -4.8449136715        0.0370379112
 H          2.3062093846       -4.6216621466       -0.9043593061
 H          1.1733998665       -2.4268192114       -0.9722665700
 H          0.0072698578       -0.8040899379        0.8521710207
 H         -1.1582870424       -2.4422736687       -0.9291876854
 H         -2.2930593956       -4.6355616484       -0.8554652877
 H         -4.5537192634       -4.8498338390        0.0635668247
 H         -5.7696635282       -2.8734518228        0.9154398351
 H         -6.5298675777       -0.3482137332        1.6500677836
 H         -6.6217673289        2.0734209979        2.1814595510
 H         -4.6822171755        3.5042890104        1.7974423397
 H         -1.3469298583        2.3954346405        0.9337199410
 H         -2.2845719409        3.3142607839       -0.2417878225
 H         -2.3621883808        3.7488944294        1.4645478041
 H         -0.0085240214        2.2864084737       -3.0400039520
  60
        -95.63883338
 C          2.3401879862        2.9619112769        0.6703151931
 C          3.4958175319        2.0303405843        0.8473662718
 C          4.6979830428        2.5120964744        1.3544124866
 C          5.7948603952        1.6942564822        1.5888787100
 C          5.7231312465        0.3284894370        1.3630754979
 C          4.5424750684       -0.1886797593        0.8615730866
 C          4.1194034367       -1.5302520781        0.5631470143
 C          4.7263964884       -2.7716833198        0.6583483442
 C          4.0097678803       -3.8907629237        0.2669267244
 C          2.7113184032       -3.7796563435       -0.2265846273
 C          2.0872972941       -2.5512902019       -0.3310689434
 C          2.7937467363       -1.4274579475        0.0783790297
 N          2.4105497599       -0.1051893663        0.0677522178
 C          1.2021640783        0.3495877749       -0.4647437846
 C         -0.0114194598       -0.0995820985        0.0278192513
 C         -1.2103997929        0.3683181152       -0.4757535263
 N         -2.4301308615       -0.1081726197        0.0197571197
 C         -2.8381564093       -1.4144469101       -0.1142279178
 C         -2.1746644788       -2.4815575409       -0.7061803280
 C         -2.8167856340       -3.7046033102       -0.7319023483
 C         -4.0890120958       -3.8632301984       -0.1858559945
 C         -4.7626382803       -2.7975034887        0.3887132833
 C         -4.1382453929       -1.5614047460        0.4234200262
 C         -4.5204061815       -0.2602461844        0.9040239013
 C         -5.6611186120        0.2080834112        1.5308240218
 C         -5.6994286851        1.5413185147        1.9084398248
 C         -4.6135241249        2.3770578646        1.6844804027
 C         -3.4524897114        1.9454671647        1.0531027298
 C         -2.3092252190        2.8878541714        0.8583110267
 C         -3.4299317083        0.6094576979        0.6375194401
 C         -1.2057585151        1.2694948243       -1.6184043636
 C         -2.4056541972        1.6848042363       -2.1855849506
 N         -3.4071698894        2.0422931741       -2.6415111600
 C          0.0112145862        1.6495472199       -2.1678749192
 C          1.2166678168        1.2276083428       -1.6265630498
 C          2.4221678744        1.5805098355       -2.2255434626
 N          3.4241398360        1.8832870626       -2.7180645257
 C          3.4458985381        0.6618402568        0.5584233499
 H          2.3189500716        3.3437128300       -0.3499928616
 H          2.4365350641        3.8097450190        1.3449011576
 H          1.3956035932        2.4579436903        0.8621596605
 H          4.7729074431        3.5659296564        1.5779651635
 H          6.7058458791        2.1283963668        1.9711695808
 H          6.5608651822       -0.3168264931        1.5758550829
 H          5.7365405662       -2.8622827487        1.0267422878
 H          4.4645410150       -4.8669816571        0.3370959305
 H          2.1836052328       -4.6690759447       -0.5354906655
 H          1.0861115133       -2.4671179285       -0.7235580093
 H         -0.0226695675       -0.7766702480        0.8711259996
 H         -1.1973294282       -2.3515471313       -1.1452765298
 H         -2.3265515301       -4.5510120920       -1.1882744755
 H         -4.5593391863       -4.8339606119       -0.2219061581
 H         -5.7543518272       -2.9244001824        0.7946503464
 H         -6.4937244793       -0.4501362089        1.7235032450
 H         -6.5781827062        1.9361224768        2.3947637409
 H         -4.6665421543        3.4043631530        2.0133329759
 H         -1.3566835732        2.3839713261        1.0077972048
 H         -2.3237764912        3.2857093738       -0.1559826637
 H         -2.3851565054        3.7223140496        1.5512370099
 H          0.0195461297        2.2852772325       -3.0423837289
  60
        -95.63768288
 C          2.2557984114        3.1553845287        0.1160735745
 C          3.4058385014        2.3020878132        0.5430441172
 C          4.5750852600        2.8967384913        1.0058109013
 C          5.6665261078        2.1611252535        1.4469826223
 C          5.6230057246        0.7757136441        1.4811456341
 C          4.4756026037        0.1475220229        1.0316953967
 C          4.0839533470       -1.2351674748        0.9724314530
 C          4.7042425224       -2.4253079138        1.3154722129
 C          4.0211186326       -3.6120577291        1.1041437682
 C          2.7425933409       -3.6207842797        0.5495327666
 C          2.1032732923       -2.4457645690        0.2017578915
 C          2.7777906588       -1.2519611250        0.4275471446
 N          2.3759640155        0.0372643382        0.1605843469
 C          1.1820527754        0.3490155647       -0.4959812946
 C         -0.0414164674       -0.0423834878        0.0179928141
 C         -1.2199973170        0.1747283106       -0.6683608035
 N         -2.4603133390       -0.1865357159       -0.1297125052
 C         -3.2616268966       -1.1607456647       -0.6750620447
 C         -3.0444518101       -1.9394042756       -1.8056689896
 C         -4.0090986557       -2.8719539423       -2.1351534736
 C         -5.1520342307       -3.0373754727       -1.3557550583
 C         -5.3612656294       -2.2782891872       -0.2151195645
 C         -4.4101770360       -1.3337280811        0.1322090726
 C         -4.2834796705       -0.3936830382        1.2145916448
 C         -5.0917915828       -0.0948098213        2.2966303423
 C         -4.6946716759        0.9227890111        3.1496128052
 C         -3.5346241709        1.6462208881        2.9037449572
 C         -2.6970785838        1.3772137165        1.8275821916
 C         -1.4979265959        2.2354828161        1.5738106776
 C         -3.0689401836        0.3112692456        1.0002570203
 C         -1.1756619015        0.7768303503       -1.9936352799
 C         -2.3548698749        1.0500278579       -2.6797847724
 N         -3.3371916168        1.2814165518       -3.2446067684
 C          0.0562778133        1.1260331460       -2.5297463329
 C          1.2391713847        0.9328059163       -1.8320076256
 C          2.4643858933        1.2220875369       -2.4229911329
 N          3.4843826946        1.4694132433       -2.9103340667
 C          3.3835316991        0.9028733851        0.5267052834
 H          2.3003052145        3.3274262085       -0.9593248386
 H          2.2998484477        4.1216982714        0.6136114679
 H          1.3054478303        2.6780884837        0.3415083616
 H          4.6281442422        3.9752269820        1.0229840650
 H          6.5515045427        2.6788694945        1.7840899501
 H          6.4562126692        0.2006960345        1.8538724457
 H          5.6993758814       -2.4262673048        1.7329966693
 H          4.4880970144       -4.5495839967        1.3648256651
 H          2.2432128026       -4.5632195491        0.3841761666
 H          1.1181694103       -2.4551414259       -0.2400274485
 H         -0.0790163282       -0.5124842450        0.9911044668
 H         -2.1586126997       -1.8144728432       -2.4088047493
 H         -3.8736631242       -3.4847245175       -3.0131924174
 H         -5.8845912511       -3.7748679746       -1.6462616659
 H         -6.2443208624       -2.4192185791        0.3889958092
 H         -6.0106515608       -0.6347091021        2.4632025592
 H         -5.3032156089        1.1753666150        4.0044524238
 H         -3.2755087406        2.4596577445        3.5656799991
 H         -0.5829802437        1.7300227359        1.8830503596
 H         -1.4130007250        2.4694065267        0.5141271733
 H         -1.5782052794        3.1642926052        2.1337893029
 H          0.0948998537        1.5564186369       -3.5209124182
  60
        -95.63764814
 C          2.2478373871        3.1451303122        0.1560982001
 C          3.4059286381        2.2942068209        0.5651842888
 C          4.5740475167        2.8917214887        1.0273792621
 C          5.6740470109        2.1589333051        1.4508973384
 C          5.6415689017        0.7727554129        1.4660949722
 C          4.4958916178        0.1418845362        1.0165804049
 C          4.1152415006       -1.2430362323        0.9403841595
 C          4.7491115880       -2.4328498954        1.2584354633
 C          4.0744213338       -3.6221148945        1.0344440750
 C          2.7905040322       -3.6333663167        0.4925942847
 C          2.1376504412       -2.4586668273        0.1698256802
 C          2.8043659553       -1.2627641516        0.4071669173
 N          2.3896649107        0.0266547735        0.1621635252
 C          1.1888049991        0.3377885588       -0.4819242560
 C         -0.0295064364       -0.0647129364        0.0371638181
 C         -1.2127818316        0.1523095427       -0.6398877400
 N         -2.4535760276       -0.2077356608       -0.0984853856
 C         -3.2510229037       -1.1849468139       -0.6428987198
 C         -3.0094596622       -1.9942498544       -1.7468210652
 C         -3.9760056117       -2.9222915670       -2.0829342380
 C         -5.1452377421       -3.0522046705       -1.3364243617
 C         -5.3801023216       -2.2609679379       -0.2228860821
 C         -4.4269079678       -1.3212185765        0.1309924483
 C         -4.3221038321       -0.3522622846        1.1900814951
 C         -5.1634880723       -0.0092294083        2.2329653123
 C         -4.7803507130        1.0266596634        3.0702956689
 C         -3.5977229480        1.7206896940        2.8493910782
 C         -2.7263256502        1.4064619887        1.8131422637
 C         -1.4965242246        2.2278988374        1.5869761423
 C         -3.0903860928        0.3285613534        0.9979913149
 C         -1.1796176305        0.7589879242       -1.9637033239
 C         -2.3647931396        1.0170626792       -2.6449803481
 N         -3.3524905791        1.2345143579       -3.2052222309
 C          0.0464156817        1.1228750956       -2.5033856146
 C          1.2340464038        0.9356040055       -1.8122627939
 C          2.4534413669        1.2434437444       -2.4056823984
 N          3.4659026324        1.5093761482       -2.8982318391
 C          3.3936610200        0.8953033307        0.5310638189
 H          2.2923682729        3.3409663857       -0.9145598546
 H          2.2819823603        4.1003842287        0.6744009588
 H          1.3024568192        2.6541461103        0.3696334427
 H          4.6186766527        3.9702613308        1.0584802955
 H          6.5573650618        2.6787941947        1.7886473954
 H          6.4821426995        0.1992962857        1.8241037692
 H          5.7484524723       -2.4318589518        1.6655462748
 H          4.5526258252       -4.5594594081        1.2744001654
 H          2.2978798236       -4.5774635981        0.3170419024
 H          1.1480753456       -2.4694084358       -0.2617074676
 H         -0.0575257987       -0.5410024506        1.0076202757
 H         -2.1032091406       -1.8954219199       -2.3241565680
 H         -3.8220200752       -3.5589072294       -2.9406693890
 H         -5.8793345476       -3.7860309929       -1.6323961515
 H         -6.2849073328       -2.3729703657        0.3545542580
 H         -6.0968528172       -0.5293057993        2.3809530585
 H         -5.4157697108        1.3147475803        3.8935913474
 H         -3.3466039759        2.5460021710        3.4994570572
 H         -1.3841688382        2.4632283246        0.5300647810
 H         -1.5576997717        3.1565113098        2.1495221763
 H         -0.6045047373        1.6915203995        1.9103126543
 H          0.0763900690        1.5599966714       -3.4918526447
  60
        -95.63688856
 C          2.3285900584        3.0930244549        0.3765521191
 C          3.4847657133        2.1931935451        0.6668247194
 C          4.6825782487        2.7321102191        1.1271413803
 C          5.7778304562        1.9473828479        1.4601263356
 C          5.7096774723        0.5636556215        1.3897570104
 C          4.5343885008       -0.0098052622        0.9397715829
 C          4.1131249930       -1.3766052951        0.7927412597
 C          4.7167728569       -2.6000326193        1.0333194405
 C          4.0030377799       -3.7555605061        0.7586858681
 C          2.7104717938       -3.7009010695        0.2395868225
 C          2.0873486050       -2.4917542344       -0.0060797155
 C          2.7909185727       -1.3298729276        0.2872991838
 N          2.4078139909       -0.0170327899        0.1271422451
 C          1.2028206529        0.3628699499       -0.4644424210
 C         -0.0117970119       -0.0759368938        0.0483775745
 C         -1.2033492627        0.2381021837       -0.5623027765
 N         -2.4373491841       -0.1911157856       -0.0351136176
 C         -3.0586153377       -1.3464339971       -0.4332307250
 C         -2.6136258759       -2.3082253737       -1.3322226331
 C         -3.4330848871       -3.3970769584       -1.5601124581
 C         -4.6584835937       -3.5274589609       -0.9104197417
 C         -5.1046921278       -2.5697821086       -0.0124597613
 C         -4.3017262000       -1.4684267251        0.2302984276
 C         -4.4253523546       -0.2974794907        1.0601419886
 C         -5.4111199161        0.1486258876        1.9218249126
 C         -5.2167809324        1.3597664714        2.5685995275
 C         -4.0672103887        2.1099399599        2.3543755970
 C         -3.0555831429        1.6966325205        1.4974379646
 C         -1.8371701519        2.5358479713        1.2797456006
 C         -3.2501586671        0.4697771030        0.8528488253
 C         -1.2021187120        0.9943378916       -1.8025607680
 C         -2.4104046266        1.3156561241       -2.4099176385
 N         -3.4286391051        1.5808138687       -2.8908020553
 C          0.0156233789        1.3834552949       -2.3477995051
 C          1.2183118339        1.0938535179       -1.7239637479
 C          2.4262121454        1.4302973130       -2.3281683591
 N          3.4286579410        1.7178760191       -2.8286469864
 C          3.4397825408        0.8007291841        0.5322265498
 H          1.3828735999        2.6041030540        0.5984321096
 H          2.3255399608        3.3671874710       -0.6781668346
 H          2.4079345991        4.0065180848        0.9616692248
 H          4.7539144011        3.8044780110        1.2320235646
 H          6.6856719148        2.4230153136        1.7980403824
 H          6.5463783899       -0.0511030862        1.6822925926
 H          5.7221803175       -2.6499859296        1.4218974877
 H          4.4564150538       -4.7178818712        0.9408671620
 H          2.1873161789       -4.6193492907        0.0218117882
 H          1.0910478807       -2.4515907939       -0.4194823545
 H         -0.0213245729       -0.6373734505        0.9730554381
 H         -1.6667396429       -2.1977678930       -1.8394585082
 H         -3.1196130630       -4.1594518663       -2.2569453829
 H         -5.2724153383       -4.3912709990       -1.1151149349
 H         -6.0571869015       -2.6780676390        0.4830704967
 H         -6.3078200763       -0.4295647877        2.0809253360
 H         -5.9704737320        1.7322779112        3.2452509052
 H         -3.9546223807        3.0533273291        2.8683376913
 H         -1.9157559909        3.4692286984        1.8314752033
 H         -0.9432107564        2.0084099015        1.6116947780
 H         -1.7178578209        2.7645533738        0.2216645435
 H          0.0245334864        1.9185753368       -3.2873422323
