72
 energy: -108.354377515632 gnorm: 0.000187166090 xtb: 6.7.1 (edcfbbe)
C           -6.39112888005308       -0.13149542924585       -0.38694831389957
C           -5.24205397956226       -0.23858871714474        0.63210271423080
C           -5.79545595214674       -0.46954417019532        2.04947780188809
C           -4.37501588945351       -1.42031225209584        0.24296224388893
C           -4.91572385215834       -2.69882297550788        0.24082357485719
C           -4.17861245219511       -3.80797829037940       -0.13085832248584
C           -2.86200125296891       -3.64803168923654       -0.52068046012671
C           -2.30060087448771       -2.38831115595673       -0.52995561172949
C           -3.04337060239489       -1.26910598518149       -0.14909702879353
N           -2.43838656266384       -0.01664714173357       -0.14631878677844
C           -1.20400837602722        0.13010344387595       -0.82267620625422
C           -0.00419630851076        0.07445621493662       -0.13307940129864
C            1.20655226146741        0.22454992963449       -0.80228305319702
N            2.43173479055840        0.17355632659230       -0.12100851920080
C            3.25309460650248        1.30128191454536       -0.18616959457548
C            2.68591669517641        2.53310698313697       -0.52194066997961
C            3.46250021110549        3.66761587173418       -0.62003506368928
C            4.82028287595960        3.59117525524981       -0.36869199369123
C            5.37140606144249        2.38441185888172        0.01669510830062
C            4.60838566049593        1.22964081643585        0.13320566043515
C            5.25712066592995       -0.06045227838549        0.58920999981863
C            5.96029187261750        0.18786448450241        1.93596334000286
C            6.27639353996755       -0.49166614062201       -0.48085820270720
C            4.24320120108262       -1.17567267489719        0.75888831153390
C            4.66686069042999       -2.40400872862936        1.25073312441413
C            3.81098582250913       -3.48047452760124        1.38263727163747
C            2.49223509946960       -3.34433570463461        0.99174719125035
C            2.04682780563049       -2.13793865564349        0.49341422447470
C            2.90202149045526       -1.03917621220521        0.38877830043954
C            1.19660303744425        0.44184904456595       -2.19571554306259
C            2.42352234640564        0.56397406137738       -2.89056939195120
N            3.41643674564567        0.63422891443829       -3.45778470993324
C           -0.00312956203142        0.50681821422240       -2.89298283348299
C           -1.20534082867097        0.34806326951950       -2.21199191341506
C           -2.44353089787819        0.40568842023239       -2.89230029290775
N           -3.45856944285262        0.44857114352719       -3.42180230548027
C           -3.13242230396691        1.13343468046080        0.21517862517695
C           -2.47309628327315        2.36399027038264        0.19965617443265
C           -3.12669984421225        3.52173644626411        0.56655484346108
C           -4.45193778300336        3.46602512186708        0.95624303616927
C           -5.10340828848336        2.24670211220877        0.97434557245040
C           -4.46925175043456        1.06603724464946        0.61243844131162
H           -7.04748518499403        0.69966759682597       -0.14389608518822
H           -5.98432539522338        0.03051123888403       -1.38347364151419
H           -6.98224086754363       -1.04316169402585       -0.40053553131778
H           -4.97437423115665       -0.54593324044390        2.76006679475187
H           -6.43792455564661        0.35126955274876        2.35479590813334
H           -6.37573548128717       -1.38652680540659        2.09596042868971
H           -5.94592530665894       -2.83896507525042        0.53030349055975
H           -4.63173937556721       -4.78729231366260       -0.12132418263900
H           -2.26948041278974       -4.49943901416695       -0.82022760093214
H           -1.27294274552456       -2.27180874920863       -0.84242588682843
H           -0.01377952409772       -0.06538139181416        0.93767446055309
H            1.62297517165057        2.60545458447861       -0.70217972826759
H            3.00511538228242        4.60712663368630       -0.89061926490361
H            5.44364300792459        4.46720505282243       -0.45900665024152
H            6.42947499067995        2.34382691593640        0.22413433892878
H            6.69693630700102        0.98097922777914        1.85093141678384
H            5.22852220380300        0.47803900212824        2.68769853554101
H            6.47153085268866       -0.70572551356590        2.28121048763716
H            5.77406099615067       -0.62337659574392       -1.43743839890646
H            7.04745222149087        0.26441576233099       -0.60149111816157
H            6.75198970747172       -1.42991344588978       -0.20770441794845
H            5.70087742874683       -2.53291828715934        1.53062144343496
H            4.17466749031396       -4.41864931339211        1.77231066917525
H            1.80682274826496       -4.17503113125885        1.06570359542582
H            1.02032465181649       -2.06109490279557        0.17218993861597
H           -0.00054502418219        0.67075030812413       -3.96055924854842
H           -1.43685113587541        2.41451430143583       -0.10178126522253
H           -2.59884292944608        4.46332810722100        0.54554579038758
H           -4.97679945376159        4.36456405245446        1.24191571490246
H           -6.13983104938222        2.22124982298201        1.27428966550865
