  72
       -108.35581796
 C         -6.2343010511       -0.1999292750        0.6004259222
 C         -5.1859812102        0.6327567373       -0.1597087763
 C         -5.8650882907        1.7702463137       -0.9437107332
 C         -4.2294245543        1.2290688347        0.8553027445
 C         -4.7068765745        2.1521220137        1.7761833639
 C         -3.9042866109        2.6919619006        2.7634672683
 C         -2.5877132707        2.2825027983        2.8592499030
 C         -2.0890902392        1.3624073947        1.9609764521
 C         -2.8881262558        0.8414175515        0.9403239072
 N         -2.3584039565       -0.0714104324        0.0331779442
 C         -1.1097530105       -0.6747055961        0.2902801279
 C          0.0591872656        0.0432987393        0.1566981720
 C          1.3149722491       -0.5194990958        0.4351041077
 N          2.4533157051        0.2282625566        0.3795916756
 C          2.5467304466        1.5088829547       -0.2153494330
 C          1.7779203914        2.5779742965        0.2233924063
 C          1.9245118540        3.8185408292       -0.3705192156
 C          2.8566488211        3.9922814813       -1.3767951078
 C          3.6668756679        2.9390276881       -1.7679358836
 C          3.5331786241        1.6853435001       -1.1921195509
 C          4.4124138072        0.4900598281       -1.5234520114
 C          5.6549413573        0.8834361387       -2.3214360302
 C          3.6097398478       -0.5231800888       -2.3634531706
 C          4.7637503913       -0.1377369018       -0.1848045422
 C          6.0279208411       -0.5644562057        0.1883922995
 C          6.2520635444       -1.0932494521        1.4485959007
 C          5.2220597760       -1.1827155128        2.3674313127
 C          3.9537815914       -0.7624491739        2.0167193616
 C          3.7260969015       -0.2730883565        0.7380933827
 C          1.3520234159       -1.9131396243        0.7026355605
 C          2.5339136360       -2.6858100796        0.7102335278
 N          3.4051705859       -3.4317491064        0.6506208371
 C          0.1701563192       -2.6362428763        0.8475609436
 C         -1.0658445523       -2.0278204068        0.6875673499
 C         -2.2642667156       -2.7425634819        0.8877461279
 N         -3.2459977805       -3.3064162944        1.0722171806
 C         -3.1198464113       -0.5839539940       -1.0144631837
 C         -2.4984184940       -1.3770496506       -1.9822231160
 C         -3.2199575368       -1.9195773984       -3.0240145889
 C         -4.5759065752       -1.6674200229       -3.1231088807
 C         -5.1818513950       -0.8457171243       -2.1918364109
 C         -4.4757026080       -0.2790028554       -1.1392695691
 H         -6.9641829045       -0.6182037394       -0.0875252166
 H         -5.7447853268       -1.0210237644        1.1208964287
 H         -6.7580124758        0.4102625076        1.3317871217
 H         -5.1146627331        2.3538964799       -1.4737475061
 H         -6.5686305947        1.3759953589       -1.6707388549
 H         -6.4098628220        2.4335918828       -0.2787793798
 H         -5.7417873378        2.4550859667        1.7340606297
 H         -4.3087636807        3.4106502658        3.4595372085
 H         -1.9465622807        2.6712095615        3.6366157672
 H         -1.0673300519        1.0319550424        2.0666164058
 H         -0.0087807092        1.0605486304       -0.1930030241
 H          1.0888056927        2.4522362844        1.0447466529
 H          1.3193973055        4.6469441485       -0.0353742914
 H          2.9724226879        4.9574775072       -1.8458871731
 H          4.4091099716        3.1107892239       -2.5300123004
 H          5.3676097077        1.3172028884       -3.2760567143
 H          6.2616044387        1.6004860345       -1.7728911742
 H          6.2533395448        0.0014627905       -2.5344021039
 H          2.6915151081       -0.8279465929       -1.8696986347
 H          3.3493008129       -0.0827965000       -3.3238184742
 H          4.2102422196       -1.4135934280       -2.5354474621
 H          6.8541592746       -0.4896480156       -0.4994313837
 H          7.2429401556       -1.4264218513        1.7167273101
 H          5.4042507199       -1.5732374307        3.3563695443
 H          3.1400505865       -0.8132655546        2.7257490421
 H          0.2258920605       -3.6904158141        1.0775998926
 H         -1.4368285185       -1.5676072068       -1.9201936023
 H         -2.7206868143       -2.5373548092       -3.7552547831
 H         -5.1561663142       -2.0986971053       -3.9242922859
 H         -6.2387395448       -0.6497555957       -2.2880886861
