72
 energy: -108.280371013495 gnorm: 0.000104279687 xtb: 6.7.1 (edcfbbe)
C           -6.23689451876770       -0.60838169752041        0.43010412580679
C           -5.31916782682046       -0.18800010564146       -0.73552721799836
C           -6.14476689705976        0.06112912925881       -2.01098848314713
C           -4.62290581347560        1.09068202460867       -0.32912417919278
C           -5.35098307762372        2.25850786272680       -0.15552395876219
C           -4.75350186549432        3.44000635907463        0.24461923138913
C           -3.38676544746224        3.47389711840710        0.47566781505481
C           -2.64181206019342        2.32817582833482        0.32408527680276
C           -3.24706550614318        1.12209510003905       -0.05973331334932
N           -2.46453913418296       -0.00729662960860       -0.18043413834978
C           -1.20058763723868        0.00898515552666        0.46131060004873
C           -0.00108550765491       -0.00332256410117       -0.22192469686968
C            1.20045879971945       -0.01631923431610        0.45755427351270
N            2.46283459088263        0.00386317882509       -0.18714454165098
C            3.24870766954284       -1.12341785918907       -0.06849066645726
C            2.64595498995087       -2.33265585831112        0.30916533560429
C            3.39393202599459       -3.47666434470987        0.45869503576248
C            4.76129894527542       -3.43755348359565        0.23216686678485
C            5.35644912288902       -2.25270147734790       -0.16152917290335
C            4.62526619526032       -1.08659421989849       -0.33353465362719
C            5.31850514148581        0.19663944304304       -0.73061332430537
C            6.15706404260731       -0.04401710503776       -1.99913543933600
C            6.22341033448006        0.61804265321004        0.44475050925206
C            4.33358719163794        1.31690146593356       -0.98442603968583
C            4.78551351685690        2.53830585463373       -1.46501345801438
C            3.93411642968833        3.61030869564795       -1.65940539276569
C            2.58953790471291        3.48043340296844       -1.34861970827335
C            2.11503183374287        2.28632390816021       -0.85693042641229
C            2.96981392834288        1.18990056061943       -0.67787443619296
C            1.21148871716118       -0.02105726006159        1.91660274071822
C            2.43978638377206        0.01527095043060        2.56745614076793
N            3.48877817723938        0.05100486480303        3.05340537767350
C            0.00315639977695       -0.00520861736280        2.59661697643555
C           -1.20715892582437        0.01171289984891        1.92031711954447
C           -2.43345375499825       -0.02393343565756        2.57511021682446
N           -3.48061465052835       -0.05836343888613        3.06494437378057
C           -2.97470228100263       -1.19099755940712       -0.67328393691936
C           -2.12382741468358       -2.29092611853633       -0.84968874894320
C           -2.60148152806197       -3.48290069717173       -1.34347507516968
C           -3.94541526928451       -3.60711670955766       -1.65937590354795
C           -4.79304373337924       -2.53163897742022       -1.46777186436151
C           -4.33785949155161       -1.31242569942022       -0.98473764109252
H           -6.99885836477902        0.14622373353572        0.60508355903421
H           -6.72557671593828       -1.55468481752843        0.21355942147358
H           -5.64800764668589       -0.71873358204465        1.33886867495235
H           -6.85458519614465        0.86903795143987       -1.86351518809374
H           -5.48501812152591        0.32835314429532       -2.83448187437798
H           -6.70523695459185       -0.82521905658187       -2.29176252149456
H           -6.41681305756903        2.25199040663680       -0.32290130110812
H           -5.35081343031034        4.32911056593842        0.37543494383928
H           -2.90573690582069        4.39173699868253        0.77730034870346
H           -1.57771672093612        2.35141148665807        0.50164182087080
H           -0.00286691986988       -0.00283914159415       -1.30392645350717
H            1.58138499909661       -2.35945278052635        0.48345917222432
H            2.91487854608138       -4.39716317433792        0.75532793632703
H            5.36100852071869       -4.32522993489267        0.36172075609467
H            6.42289418625500       -2.24221055377794       -0.32462815770253
H            6.86865945661679       -0.84971156229961       -1.84832747037175
H            5.50626005413915       -0.31026772143682       -2.83002089079026
H            6.71700529047859        0.84548274842247       -2.27078538615494
H            5.62609120795128        0.72069308749921        1.34894211968185
H            6.98856627820116       -0.13256526564381        0.62304401874143
H            6.70774641763013        1.56839412034678        0.23620669755122
H            5.83374585043992        2.66835294212427       -1.68460954404136
H            4.31961247511559        4.54454894789769       -2.03764001609361
H            1.91449378170009        4.31208437635360       -1.48189017226387
H            1.07318913783710        2.19238457036447       -0.59605247938278
H            0.00482332553949       -0.00588049441641        3.67792712924371
H           -1.08258502349235       -2.20132346420599       -0.58488410207537
H           -1.92941414882670       -4.31730560917484       -1.47454940071588
H           -4.33332353956431       -4.53956288065805       -2.03955905071657
H           -5.84094766841051       -2.65698218557740       -1.69174905341643
