72
 energy: -108.270300333420 gnorm: 0.000053527988 xtb: 6.7.1 (edcfbbe)
C           -6.26103906752294       -0.32106871673470        0.80551861293217
C           -5.30165734569573        0.57099950936487       -0.00605361000068
C           -6.08335455926434        1.67865291706356       -0.73678311089790
C           -4.32125047563575        1.20432679144342        0.95771288024154
C           -4.78356470860942        2.09801963129706        1.91427594049397
C           -3.94702202657527        2.65716608626355        2.86225663966846
C           -2.60898799742845        2.29841530992494        2.88446902530468
C           -2.12345497089603        1.41032243895324        1.95185617382224
C           -2.95910353778769        0.86720034066615        0.96647242798921
N           -2.44181672779216       -0.00781733493702        0.02952567870776
C           -1.15199981387908       -0.56321159516281        0.19610051418528
C            0.00594248014676        0.17352812338031        0.04330006837870
C            1.26431519579040       -0.37651800624528        0.24242131705938
N            2.45273269856073        0.33125699399845        0.14606055077435
C            2.65022551682132        1.56832811556898       -0.48257177866221
C            1.85092801444372        2.67797091368508       -0.21326914736689
C            2.10687488432275        3.88584558687595       -0.83155873071326
C            3.17727284969857        4.00494828131119       -1.70034740938661
C            4.02011808996695        2.92439142034262       -1.91010867400934
C            3.78501808911795        1.70323771059211       -1.30345270934026
C            4.68367226420053        0.49133542417922       -1.46030781426194
C            6.04407546802973        0.83730772437575       -2.06495044072079
C            3.99461572392564       -0.53184568010400       -2.38691947796792
C            4.80771883704653       -0.11587862491673       -0.07622734386291
C            5.97062930188041       -0.62288122613953        0.47153243026290
C            5.96946780005072       -1.20147173581753        1.73344906773500
C            4.80265670629370       -1.26686239978283        2.47541189981923
C            3.62874777728261       -0.76723844424365        1.95250267959823
C            3.62696888822213       -0.20856441307399        0.67228679756828
C            1.34334723193357       -1.83481666372273        0.43961348018149
C            2.51413478814364       -2.57134310784646        0.26482270983888
N            3.40881222492084       -3.27718392716613        0.06320229570004
C            0.17404589579369       -2.55959403793842        0.64499114566668
C           -1.07609229136327       -1.97143423477758        0.56891370436122
C           -2.24782888702900       -2.67116715537611        0.84181285930521
N           -3.24190734938644       -3.21430417826809        1.07028313942101
C           -3.22641885906104       -0.53448111203650       -0.97790234354710
C           -2.61811462773255       -1.30863694957968       -1.97740284656535
C           -3.36888120532901       -1.89333454638686       -2.97102364873396
C           -4.74174826506438       -1.70690224301875       -2.99510747634777
C           -5.33940875203210       -0.90682723365434       -2.03778563504367
C           -4.60688230705141       -0.29795149259512       -1.02984578609347
H           -7.01726260328902       -0.75631099710676        0.15820773444743
H           -5.70302860893528       -1.13003160694628        1.27302136777897
H           -6.75820512238062        0.25306926988703        1.58284298420360
H           -5.39433092009025        2.32244903910288       -1.28044398191283
H           -6.78710498607064        1.25354080018237       -1.44581913169258
H           -6.64385687342176        2.28847735129372       -0.03471775690972
H           -5.82986579566502        2.36076986363837        1.93310001579936
H           -4.33944304976556        3.35285538338240        3.58777932944167
H           -1.94589128860507        2.70589333031826        3.63258225772681
H           -1.08744309600514        1.11452541001075        1.99032546676913
H           -0.10061673519965        1.20264252028127       -0.25639695352724
H            1.06431608836082        2.61683783277679        0.52157756571787
H            1.47847810586923        4.73763841081109       -0.61920854574174
H            3.37620912672536        4.94437837920463       -2.19284645955494
H            4.87182701658073        3.05171777163670       -2.55790831898712
H            5.92052451171767        1.25199776060821       -3.06220492896243
H            6.57675645826954        1.55434711364808       -1.44404154066255
H            6.64412895540266       -0.06339151288737       -2.16254273488593
H            2.99607010591926       -0.78029629826766       -2.03862104245856
H            3.91569589014802       -0.12520048229507       -3.39310799379275
H            4.57578170580990       -1.45029932618142       -2.41816952688284
H            6.89521884027077       -0.58612481383672       -0.08084131774635
H            6.88805862480160       -1.59890846639682        2.13679642881889
H            4.80770112406633       -1.70388545515534        3.46206575250188
H            2.71376657170840       -0.78782329544322        2.52637677247747
H            0.24863882358259       -3.62157808544819        0.83530141496243
H           -1.54679093388310       -1.43736908691121       -1.97058970398125
H           -2.88461219233284       -2.49328546272353       -3.72615372885094
H           -5.34268119122593       -2.17273484141647       -3.76072603347080
H           -6.40834453444252       -0.76527220172257       -2.07898263455455
