44
 energy: -76.483564278433 gnorm: 0.000041614706 xtb: 6.7.1 (edcfbbe)
O            4.36972587548552        2.21757329312951       -1.11459262760589
S            3.91306880375142        1.56582572710461        0.08965585286432
O            4.31292227523242        2.17036188648521        1.33608251972020
C            4.24377812863331       -0.18496339784004        0.05548289413953
C            5.46185979868487       -0.80644162984412        0.07771290490725
C            5.51051731859419       -2.19831784029253        0.04729469714047
C            4.31938996252191       -2.93504307770090       -0.00870005480822
C            3.09604996840243       -2.31718186299133       -0.03373413505300
C            3.01880464476561       -0.90355969002485       -0.00271665245688
C            1.86408295588704       -0.09558684914069       -0.02923551800503
C            0.52474209537704       -0.49628476075099       -0.09911568586561
C           -0.49270079263151        0.43731073145478       -0.12422769433271
N           -1.81953187384876        0.07379565534331       -0.23244605182574
C           -2.85917702065784        1.00969927741842       -0.29536547253666
C           -2.81517825249537        2.08623556491275       -1.18894720002874
C           -3.84010822731811        3.00828548931459       -1.21816370520813
C           -4.93537221171099        2.87079656020318       -0.37494932942220
C           -5.01980472191291        1.78087236679832        0.47446512809888
C           -3.99621981984346        0.84803788327030        0.50517473459206
S           -4.11272915298681       -0.55466302454719        1.57320071344966
C           -3.30245286352625       -1.69879759685416        0.49863214062033
C           -3.72357112350325       -3.01943587666119        0.45767878870798
C           -3.12930577093825       -3.90662693557499       -0.41924011195084
C           -2.14043856081181       -3.46058859228630       -1.28794065202142
C           -1.70922272026407       -2.15123440693691       -1.24290622676828
C           -2.25172929959313       -1.25914523066735       -0.31526465751707
C           -0.17718484435352        1.84563246740231        0.05875571421384
C            1.14593264131687        2.25549805618777        0.09439359947389
C            2.14802182884053        1.32695595812418        0.02711316311400
H            6.36453962262452       -0.21687611968764        0.12286117653477
H            6.45975256353839       -2.70927509564476        0.06961808541304
H            4.37317069871908       -4.01403075336545       -0.03275582242628
H            2.18903018718138       -2.90114661520728       -0.07827956680235
H            0.30412990563403       -1.55080711665048       -0.12051070027038
H           -1.97123506674019        2.17549119346858       -1.85579854051081
H           -3.78976169460340        3.83711674472103       -1.90695705617244
H           -5.73151765777420        3.59762857396997       -0.39471931161672
H           -5.87525558637844        1.64323989674609        1.11675896534015
H           -4.52047133284626       -3.33539067002119        1.11244323067605
H           -3.45306889607837       -4.93486363954789       -0.44554407909246
H           -1.70820569534535       -4.13790998341405       -2.00793641425999
H           -0.96382034352644       -1.79627963721801       -1.93762228553406
H           -0.96609819964968        2.55403829720783        0.23942016936769
H            1.38905882933576        3.30116630411335        0.20441762721780
