44
 energy: -76.495751538444 gnorm: 0.000166185867 xtb: 6.7.1 (edcfbbe)
O            4.47981557855699        1.11418930202634        1.90157493527092
S            4.00055420046238       -0.07790910282150        1.25002125294827
O            4.47784528542918       -1.33682778865714        1.76241244057973
C            4.18874915704137        0.02339840571121       -0.52618013209049
C            5.35241784438102        0.06435649478092       -1.25074579826743
C            5.27216793117578        0.14423663820329       -2.63668309652070
C            4.02769743088187        0.18083579227442       -3.25909640520400
C            2.85911424592424        0.13954941479710       -2.52603918462126
C            2.92251222909365        0.05933066443592       -1.13051369776000
C            1.82344529604357        0.00747661081015       -0.20077649295075
C            0.45487944954471        0.02671423304308       -0.49361099663958
C           -0.45398215069463       -0.03079515613729        0.54407409606171
N           -1.85565828779341       -0.00933054907536        0.24333658641893
C           -2.45590483815025        1.21936245963229        0.16292626857761
C           -1.72022492223555        2.39021353669179        0.42543499642068
C           -2.29112823907941        3.63243278097185        0.34665251975158
C           -3.64992454247084        3.77644556969335       -0.01343996204748
C           -4.39480583466588        2.66075762777757       -0.28218311998073
C           -3.83402897210294        1.38130886793054       -0.19681443231425
S           -4.85919797880232        0.04556644997428       -0.59505954013888
C           -3.85244645833058       -1.33208724190992       -0.30806343332627
C           -4.43065819602326       -2.59245937728742       -0.49771364450020
C           -3.70018870427130       -3.73640323753601       -0.32572821858267
C           -2.33807187196573       -3.64088651585124        0.03758750225402
C           -1.75023409566333       -2.41715518856319        0.21743411801288
C           -2.47171003205864       -1.21905116335249        0.05997505795634
C           -0.05387653737341       -0.10854509032535        1.88300559977233
C            1.30645969895830       -0.12815528448203        2.17843520727357
C            2.21053690704282       -0.07065186350139        1.15196873159696
H            6.30403869384123        0.03450573533744       -0.74349258694769
H            6.17301087289368        0.17756847341636       -3.22914514685723
H            3.97693362412780        0.24255219209834       -4.33646483526625
H            1.90324265308979        0.16919147940529       -3.02684049742404
H            0.10440430517287        0.08616408679680       -1.51264727990171
H           -0.68169207577103        2.29967733707576        0.70087959214607
H           -1.69991213663946        4.50791758916960        0.56018463518834
H           -4.09054891233764        4.75791393663597       -0.07493446525620
H           -5.43427367823345        2.73969199862856       -0.56321313083083
H           -5.47179024702409       -2.63389687134384       -0.78054986098826
H           -4.15432014330215       -4.70344912326694       -0.46657544963666
H           -1.75749842104594       -4.53880994652776        0.17267015862326
H           -0.70899190937405       -2.36364783502721        0.49226932900231
H           -0.79686613098874       -0.15183397405099        2.66291856466847
H            1.64986547381723       -0.18724421230130        3.19894555977434
