44
 energy: -76.578775709616 gnorm: 0.000123343723 xtb: 6.7.1 (edcfbbe)
O            4.47575974618386        2.15924211691679       -1.02760529388288
S            3.93569486883678        1.53626084175693        0.15185881104075
O            4.30310331917154        2.10337455687208        1.42158314456922
C            4.23581554563072       -0.23647765285144        0.12631752780041
C            5.44107365042189       -0.89213515668084        0.19901151509045
C            5.44130229725352       -2.28099533095987        0.15575697309511
C            4.24608927282079       -2.97387631439131        0.04052902385607
C            3.03554401123430       -2.30299917322230       -0.03323401570710
C            3.02443213677001       -0.91364210709009        0.01051276804237
C            1.85689951152558       -0.03398165246155       -0.05569323444508
C            0.53721608868606       -0.43233956618913       -0.17757175589862
C           -0.48403554047826        0.52578870256709       -0.24590749483223
N           -1.80216367348739        0.13586917130829       -0.37236834915532
C           -2.87947629726007        1.04830636667340       -0.34736378923275
C           -2.97185006931223        2.09027356671049       -1.26410227510676
C           -4.03328633746498        2.97509182185688       -1.20780405956030
C           -5.02669620442513        2.81569973906513       -0.25448900348165
C           -4.97610602719325        1.74994952798715        0.62466820905840
C           -3.91000041521336        0.86567854859526        0.57227878246753
S           -3.86224909256822       -0.53215739637660        1.66290293083676
C           -3.14882737289363       -1.67436287177018        0.50959005038342
C           -3.54950957611581       -3.00146089092309        0.50890119419630
C           -3.01666328995864       -3.87872556084247       -0.41725658742166
C           -2.11456963829645       -3.42153689723084       -1.36512507452227
C           -1.71831860453897       -2.09640931214109       -1.36893106262172
C           -2.20145429761121       -1.21770651534726       -0.40467547488757
C           -0.14519505747813        1.88075203516150       -0.11422912436462
C            1.17428690098219        2.27625240369610        0.01139981290582
C            2.16504643827213        1.32242325181192        0.01766280526750
H            6.35712542164632       -0.32983007821825        0.28767470600822
H            6.37407168619993       -2.82092474685352        0.21195960927135
H            4.25713475612579       -4.05330705019898        0.00737702497157
H            2.11439390204583       -2.85839050750734       -0.12249548206844
H            0.29569063199861       -1.48223125447037       -0.19527259907117
H           -2.20321691714254        2.20182141035697       -2.01395332081897
H           -4.08592379615215        3.78916617020474       -1.91420169791495
H           -5.85040988766270        3.51079653939370       -0.20697926798382
H           -5.75289152153144        1.59559589717348        1.35728972137509
H           -4.27213986495444       -3.33343854099368        1.23792605757020
H           -3.31969397312390       -4.91416658199623       -0.41085413756562
H           -1.72084625727246       -4.09743703774343       -2.10874379539300
H           -1.02827737820490       -1.73185033417823       -2.11515426757394
H           -0.92019949418830        2.62920757153161       -0.08573989319387
H            1.42782430181911        3.31990492937478        0.10798784243002
