  96
       -156.70808519
 C         -9.8001882355       -4.8001001474        0.0038425490
 C        -10.2365725441       -3.4844621147       -0.0142407790
 C         -9.3212995040       -2.4501724231       -0.0172719888
 C         -7.9552426442       -2.7266308508       -0.0029271269
 C         -6.9842565553       -1.6339198866       -0.0073666000
 N         -7.4514508637       -0.3797649919       -0.0036624255
 C         -6.5322478366        0.5929901806       -0.0052769502
 C         -6.9969963843        1.9785571551       -0.0006968159
 C         -8.3622203612        2.2592864091        0.0056647544
 C         -8.7991210281        3.5694566249        0.0102049660
 C         -7.8816571669        4.6086928697        0.0085928442
 C         -6.5223370222        4.3346472944        0.0021315555
 C         -6.0783250018        3.0272874100       -0.0025950407
 N         -5.2387404526        0.3618009263       -0.0108623440
 C         -4.8187114087       -0.9168310296       -0.0166985608
 C         -3.4202299315       -1.1977383439       -0.0240495476
 C         -2.9568082716       -2.5288119617       -0.0424453036
 C         -1.6172015258       -2.8203455821       -0.0482028117
 C         -0.6908495403       -1.7716911246       -0.0342221521
 C         -1.1576903349       -0.4356132205       -0.0162120831
 C         -2.4868415864       -0.1384155478       -0.0115593496
 C          0.0169588648        0.5327014771       -0.0002869398
 C         -0.0057168690        1.3563545622        1.2612674411
 C          0.1111496623        0.7394140059        2.5003193559
 C          0.0652153024        1.4756409879        3.6680891785
 C         -0.1030527166        2.8520019581        3.6127787591
 C         -0.2203336946        3.4832521010        2.3927233552
 C         -0.1713725467        2.7392397539        1.2149531294
 O         -0.2899797426        3.4404977360        0.0536852023
 C         -0.1727065422        2.7824204022       -1.1326749829
 C         -0.2243726228        3.5691992221       -2.2821883243
 C         -0.1072333932        2.9835934243       -3.5247548227
 C          0.0648074765        1.6106606106       -3.6309925081
 C          0.1130311814        0.8319903952       -2.4911701033
 C         -0.0052528944        1.4023628842       -1.2301781407
 C          1.1942306216       -0.4267611068       -0.0152971512
 C          2.5222677604       -0.1225790520       -0.0104393283
 C          3.4618287064       -1.1766426250       -0.0214815417
 C          4.8592134629       -0.8895135936       -0.0163643089
 N          5.7481740232       -1.9008095829       -0.0144078320
 C          7.0275183753       -1.5987853504       -0.0085657106
 C          8.0036370732       -2.6869608032        0.0001457103
 C          7.5765567301       -4.0140529958       -0.0055921503
 C          8.5023441394       -5.0383412280        0.0055581254
 C          9.8588695516       -4.7511200258        0.0225312003
 C         10.2886681808       -3.4331599699        0.0277218548
 C          9.3683232359       -2.4035032909        0.0164609186
 N          7.4896793074       -0.3427716959       -0.0087425571
 C          6.5668447214        0.6263876821       -0.0105151711
 C          7.0273394809        2.0134104889       -0.0099286365
 C          6.1057339118        3.0593926404       -0.0117509151
 C          6.5458353538        4.3680254475       -0.0109234550
 C          7.9042211268        4.6464808572       -0.0084579580
 C          8.8245105670        3.6099809436       -0.0069283423
 C          8.3915460268        2.2984608231       -0.0076967394
 N          5.2740312539        0.3908615088       -0.0125496717
 C          3.0064837653       -2.5106407848       -0.0368010705
 C          1.6686740165       -2.8102507186       -0.0433688056
 C          0.7364670612       -1.7667358862       -0.0328347822
 N         -5.7036834811       -1.9313797291       -0.0146194216
 C         -7.5214246750       -4.0514314267        0.0156917077
 C         -8.4421776583       -5.0802875367        0.0191955042
 H        -10.5181109997       -5.6071982538        0.0060390025
 H        -11.2947884352       -3.2676956044       -0.0259676953
 H         -9.6439090311       -1.4209932386       -0.0315102391
 H         -9.0617829873        1.4382186537        0.0072457814
 H         -9.8576082524        3.7848526906        0.0149317650
 H         -8.2260271841        5.6325353727        0.0117940521
 H         -5.8091317686        5.1458283899        0.0005218470
 H         -5.0243056593        2.7974246642       -0.0073722367
 H         -3.6934773184       -3.3171765641       -0.0522354088
 H         -1.2754572539       -3.8447428472       -0.0623975051
 H         -2.8496948590        0.8783049993        0.0014203205
 H          0.2387791124       -0.3321914597        2.5385010171
 H          0.1588735710        0.9798192635        4.6219763636
 H         -0.1411083544        3.4317961005        4.5223190314
 H         -0.3503423058        4.5516147962        2.3205095914
 H         -0.3562492190        4.6339490201       -2.1705400294
 H         -0.1484417658        3.5964555066       -4.4123140912
 H          0.1583339799        1.1504837821       -4.6026234350
 H          0.2423018136       -0.2373148858       -2.5688071550
 H          2.8779249328        0.8964946845        0.0029998450
 H          6.5178163839       -4.2198520485       -0.0190114937
 H          8.1690295545       -6.0659314866        0.0016343327
 H         10.5809668553       -5.5544288828        0.0322410103
 H         11.3455786726       -3.2113541373        0.0418722397
 H          9.6857227926       -1.3726696876        0.0213473284
 H          5.0520698026        2.8263803201       -0.0123987174
 H          5.8301822459        5.1769221382       -0.0123576987
 H          8.2451850094        5.6714437489       -0.0077968598
 H          9.8823601602        3.8281565245       -0.0050824605
 H          9.0940729896        1.4799139180       -0.0069912107
 H          3.7477439017       -3.2946694529       -0.0444592590
 H          1.3325177555       -3.8365042007       -0.0564225214
 H         -6.4616940288       -4.2522561391        0.0280562479
 H         -8.1038726275       -6.1060296613        0.0343951476
  96
       -156.70797401
 C         -9.8341196165       -4.8165764584       -0.0887225324
 C         -8.4801696051       -5.0903448000       -0.2106172737
 C         -7.5593504798       -4.0619810271       -0.1824233102
 C         -7.9889584325       -2.7442637684       -0.0317167070
 C         -7.0170760677       -1.6527164244        0.0010728638
 N         -7.4813126068       -0.4023237760        0.1145676667
 C         -6.5606114943        0.5687434294        0.1373268070
 C         -7.0171964151        1.9501938568        0.2751699775
 C         -6.0916995285        2.9918877884        0.3227145519
 C         -6.5247151704        4.2952160807        0.4637960010
 C         -7.8800688446        4.5723074731        0.5588479889
 C         -8.8042783207        3.5401228964        0.5110730088
 C         -8.3784126813        2.2339042903        0.3697067082
 N         -5.2695461573        0.3400423164        0.0509290208
 C         -4.8524007512       -0.9353663520       -0.0498292167
 C         -3.4546701032       -1.2129707630       -0.1115784314
 C         -2.9885814781       -2.5427089784       -0.1482492170
 C         -1.6481500961       -2.8304639591       -0.1693781532
 C         -0.7248170885       -1.7790279276       -0.1593976913
 C         -1.1943190267       -0.4429692577       -0.1439953364
 C         -2.5244975566       -0.1506645613       -0.1172618538
 C         -0.0265317279        0.5273252565       -0.1474483003
 C         -0.0247718365        1.3981537957        1.0811829571
 C         -0.1678867416        0.8296386375        2.3404232772
 C         -0.1446456633        1.6104204992        3.4796183366
 C          0.0272584793        2.9834293466        3.3745606005
 C          0.1706673966        3.5670099281        2.1337137063
 C          0.1441285222        2.7780886049        0.9848727259
 O          0.2860300572        3.4338827940       -0.2002293400
 C          0.1771779324        2.7325257868       -1.3623119600
 C          0.2437440827        3.4755793706       -2.5397996600
 C          0.1353315607        2.8446900733       -3.7608397575
 C         -0.0433113063        1.4697351544       -3.8173534806
 C         -0.1059968675        0.7342888946       -2.6498184977
 C          0.0037413359        1.3505557970       -1.4098279308
 C          1.1567203090       -0.4303403795       -0.1276881547
 C          2.4824742389       -0.1206114210       -0.0962484413
 C          3.4254951944       -1.1712566498       -0.0787993992
 C          4.8199570060       -0.8762540072       -0.0285469331
 N          5.7145919385       -1.8819209572        0.0063847229
 C          6.9904387173       -1.5713389173        0.0667619429
 C          7.9716013484       -2.6537274421        0.1175396785
 C          7.5533222346       -3.9830753932        0.0780920653
 C          8.4834319434       -5.0020332470        0.1298442310
 C          9.8353360948       -4.7072117323        0.2220471021
 C         10.2562080591       -3.3870710937        0.2616848161
 C          9.3314984035       -2.3625623703        0.2093511969
 N          7.4443698931       -0.3123918858        0.0876509820
 C          6.5164842409        0.6509238403        0.0445783058
 C          6.9670079809        2.0410894068        0.0619171075
 C          6.0391100058        3.0809113903        0.0226432057
 C          6.4702994017        4.3924446356        0.0401961369
 C          7.8257863968        4.6797170998        0.0968356493
 C          8.7522568340        3.6493344625        0.1354616939
 C          8.3282719282        2.3350172363        0.1182022165
 N          5.2265457853        0.4065745008       -0.0101362740
 C          2.9750398272       -2.5067064722       -0.1032694077
 C          1.6386584062       -2.8107502566       -0.1380751570
 C          0.7024215694       -1.7707922516       -0.1472377539
 N         -5.7384732429       -1.9486210355       -0.0770689077
 C         -9.3509529481       -2.4741711896        0.0892679638
 C        -10.2663422044       -3.5080189214        0.0609110906
 H        -10.5520882308       -5.6233528033       -0.1105415936
 H         -8.1452204170       -6.1106018442       -0.3278057864
 H         -6.5026545055       -4.2574021775       -0.2763790857
 H         -5.0407761094        2.7593159497        0.2496278936
 H         -5.8056925482        5.1004933539        0.5012978287
 H         -8.2157290974        5.5928292923        0.6712508199
 H         -9.8596114799        3.7579295911        0.5863157298
 H         -9.0836624838        1.4186142331        0.3320687580
 H         -3.7230861022       -3.3331481043       -0.1489562943
 H         -1.3034635982       -3.8537948885       -0.1884698015
 H         -2.8888618262        0.8651906490       -0.0962156876
 H         -0.2981598916       -0.2396432751        2.4167893955
 H         -0.2587067075        1.1517762141        4.4497995191
 H          0.0476527362        3.5980263365        4.2615977070
 H          0.3036003247        4.6317166464        2.0228958406
 H          0.3806213114        4.5430108511       -2.4666675424
 H          0.1889295521        3.4237294557       -4.6701527943
 H         -0.1300160755        0.9738112640       -4.7719115704
 H         -0.2398301623       -0.3364858077       -2.6895745554
 H          2.8356041577        0.8994602884       -0.0789979186
 H          6.4979457077       -4.1947214426        0.0075753477
 H          8.1574203654       -6.0315096636        0.0999059728
 H         10.5604549710       -5.5067552009        0.2637157034
 H         11.3095529814       -3.1589238786        0.3343452019
 H          9.6416743814       -1.3299354672        0.2400701938
 H          4.9882352515        2.8409967371       -0.0209022132
 H          5.7498630708        5.1966092451        0.0101684388
 H          8.1599402338        5.7068802966        0.1109266233
 H          9.8078219590        3.8746836219        0.1793772868
 H          9.0352629129        1.5208973998        0.1476745002
 H          3.7189799313       -3.2881693745       -0.0916520546
 H          1.3065678841       -3.8382793224       -0.1552317074
 H         -9.6700483031       -1.4503895940        0.2056058830
 H        -11.3213955524       -3.2964283793        0.1556873344
  96
       -156.70787777
 C         -9.8058948544       -4.8166746713       -0.2330611330
 C         -8.4574457107       -5.0696338238       -0.4347014685
 C         -7.5404121838       -4.0399194216       -0.3632686629
 C         -7.9687910301       -2.7417429474       -0.0897455017
 C         -7.0012459361       -1.6484791601       -0.0148715959
 N         -7.4699968451       -0.4050976623        0.1451381448
 C         -6.5528244246        0.5677251587        0.2060658853
 C         -7.0175895269        1.9393958366        0.4017712731
 C         -6.0982265090        2.9752408183        0.5617049417
 C         -6.5414630525        4.2680792209        0.7580802554
 C         -7.9006812267        4.5403927591        0.7956742326
 C         -8.8186443956        3.5140119062        0.6354795653
 C         -8.3826835291        2.2181706006        0.4398413833
 N         -5.2607704800        0.3480274630        0.1077202318
 C         -4.8393872307       -0.9210723619       -0.0425821845
 C         -3.4414317842       -1.1944778168       -0.1189697206
 C         -2.9763904252       -2.5242126300       -0.1682752734
 C         -1.6364905221       -2.8126903191       -0.1960588965
 C         -0.7129504737       -1.7615590733       -0.1849839905
 C         -1.1814018716       -0.4254539399       -0.1657047760
 C         -2.5111798914       -0.1322055951       -0.1266426681
 C         -0.0104109470        0.5436366955       -0.1838381677
 C         -0.0131955807        1.4306745341        1.0327242359
 C         -0.0606598696        0.8698115174        2.3026902338
 C         -0.0572948088        1.6652705478        3.4318219580
 C         -0.0049330441        3.0462882400        3.3054061703
 C          0.0428927884        3.6224106100        2.0537925440
 C          0.0388319922        2.8182474127        0.9151327994
 O          0.0864368787        3.4675402883       -0.2808271311
 C          0.0539937938        2.7408976903       -1.4318212720
 C          0.0771052772        3.4686076827       -2.6206442779
 C          0.0442806328        2.8121571799       -3.8324707610
 C         -0.0130127698        1.4260935637       -3.8686025057
 C         -0.0345537948        0.7063739735       -2.6899511923
 C         -0.0010938197        1.3487317077       -1.4586326011
 C          1.1705616863       -0.4152135736       -0.1577143108
 C          2.4973324798       -0.1090725861       -0.1208335721
 C          3.4371389232       -1.1625230545       -0.0911110553
 C          4.8326847215       -0.8747379107       -0.0287299919
 N          5.7192611845       -1.8862531307        0.0337066686
 C          6.9969096024       -1.5849757600        0.1001755856
 C          7.9677268149       -2.6750660309        0.1800525828
 C          7.5330946743       -3.9980340555        0.2468182887
 C          8.4528965956       -5.0245243068        0.3282681058
 C          9.8107006424       -4.7436056820        0.3424104245
 C         10.2478931967       -3.4298620917        0.2750724525
 C          9.3335351187       -2.3978360194        0.1950652863
 N          7.4604792440       -0.3293752721        0.1034362454
 C          6.5400926029        0.6400687952        0.0395837753
 C          7.0010271925        2.0270306262        0.0455088997
 C          6.0814285085        3.0729120384       -0.0207599347
 C          6.5217198862        4.3814938035       -0.0123603563
 C          7.8782395466        4.6597608807        0.0618436567
 C          8.7965027007        3.6233366417        0.1273785832
 C          8.3633995573        2.3118980276        0.1194788120
 N          5.2489026414        0.4052273313       -0.0247176734
 C          2.9836496660       -2.4971063232       -0.1129098589
 C          1.6469540722       -2.7979877566       -0.1556158548
 C          0.7140422346       -1.7552358586       -0.1733900601
 N         -5.7215255986       -1.9362855880       -0.1041020306
 C         -9.3251988993       -2.4923476436        0.1114754188
 C        -10.2365676787       -3.5277385943        0.0404579324
 H        -10.5209091847       -5.6244461942       -0.2892684123
 H         -8.1238191818       -6.0745614912       -0.6485610108
 H         -6.4881112689       -4.2189416184       -0.5193557020
 H         -5.0443012939        2.7461446851        0.5333873462
 H         -5.8275225795        5.0687774023        0.8844284916
 H         -8.2442225655        5.5525222337        0.9512151418
 H         -9.8770394394        3.7280135642        0.6650641405
 H         -9.0828909322        1.4074880757        0.3129590714
 H         -3.7116306207       -3.3139883021       -0.1691671403
 H         -1.2921994801       -3.8360251039       -0.2212562784
 H         -2.8756222699        0.8835881582       -0.1007180531
 H         -0.1004409616       -0.2054413907        2.3948561049
 H         -0.0948200139        1.2123280255        4.4106324074
 H         -0.0015569057        3.6727443357        4.1843523965
 H          0.0838856981        4.6927809649        1.9264425126
 H          0.1206735948        4.5448608113       -2.5631718805
 H          0.0632148927        3.3795496978       -4.7504595177
 H         -0.0390283584        0.9097703823       -4.8159610249
 H         -0.0767470413       -0.3724011374       -2.7140226216
 H          2.8528576781        0.9101576944       -0.1056187005
 H          6.4735695715       -4.1989438753        0.2357265764
 H          8.1141615041       -6.0488615935        0.3809556824
 H         10.5280827268       -5.5489355767        0.4056025203
 H         11.3063271542       -3.2127524531        0.2849908780
 H          9.6565920517       -1.3699740357        0.1418468546
 H          5.0296755024        2.8398028299       -0.0782843987
 H          5.8075525538        5.1901982189       -0.0636763716
 H          8.2195250298        5.6846263979        0.0690182985
 H          9.8527331997        3.8418446990        0.1856858341
 H          9.0637388397        1.4932923435        0.1716389672
 H          3.7256107569       -3.2802705477       -0.0932442933
 H          1.3120657139       -3.8246492651       -0.1703711377
 H         -9.6429600251       -1.4837071014        0.3244142302
 H        -11.2872851312       -3.3326210809        0.1981019519
  96
       -156.70775441
 C         -9.7580600129       -4.8469945343       -0.4269867542
 C        -10.2179081206       -3.5429872084       -0.3281824884
 C         -9.3224557082       -2.4999161472       -0.1948937671
 C         -7.9529286516       -2.7561546820       -0.1591543044
 C         -7.0012487779       -1.6540212722       -0.0315298254
 N         -7.4851878184       -0.4071413101        0.0143865561
 C         -6.5804420823        0.5744198353        0.1105052772
 C         -7.0663972407        1.9507585626        0.1836339629
 C         -6.1680000478        3.0055226005        0.3387128855
 C         -6.6329686196        4.3034306353        0.4143317264
 C         -7.9930863706        4.5620256308        0.3360098837
 C         -8.8903186681        3.5166308063        0.1813935126
 C         -8.4325589761        2.2158254846        0.1054536598
 N         -5.2839599003        0.3603962793        0.1427161481
 C         -4.8480130686       -0.9120227812        0.1034145829
 C         -3.4474953047       -1.1819971366        0.1372073147
 C         -2.9818315368       -2.5110271469        0.1994031568
 C         -1.6419748926       -2.7991042980        0.2258354890
 C         -0.7189072752       -1.7488558443        0.1764580029
 C         -1.1866738385       -0.4141227453        0.1064283447
 C         -2.5172880079       -0.1205783060        0.0946760175
 C         -0.0152617299        0.5501861750        0.0220200902
 C          0.0014008900        1.5194435622        1.1735497972
 C         -0.0739192032        1.0522916397        2.4795314441
 C         -0.0377639560        1.9246510868        3.5499263139
 C          0.0776302953        3.2895447996        3.3270653119
 C          0.1521304425        3.7733787740        2.0381980257
 C          0.1136005800        2.8920060419        0.9589291146
 O          0.1883149957        3.4535590084       -0.2793410000
 C          0.1014000807        2.6524927130       -1.3768618974
 C          0.1258774712        3.2955056858       -2.6134822560
 C          0.0390003410        2.5593352761       -3.7758158266
 C         -0.0739393642        1.1775836938       -3.7144757401
 C         -0.0963647899        0.5418643328       -2.4885763813
 C         -0.0096552551        1.2653813417       -1.3058442687
 C          1.1660401911       -0.4068114713        0.0979236605
 C          2.4937217356       -0.1024707690        0.0803607235
 C          3.4326182047       -1.1561192824        0.1255440600
 C          4.8299933657       -0.8716672563        0.0926950727
 N          5.7143429092       -1.8855604079        0.0405973216
 C          6.9934105925       -1.5875361300       -0.0150265470
 C          7.9609982722       -2.6794444170       -0.1061717181
 C          7.5244592100       -4.0032041593       -0.1323801574
 C          8.4408047406       -5.0315717987       -0.2270681507
 C          9.7971387163       -4.7516858845       -0.2973010126
 C         10.2361584195       -3.4371502920       -0.2720695153
 C          9.3253238860       -2.4033836266       -0.1765362515
 N          7.4609172430       -0.3334827972        0.0015331404
 C          6.5430093046        0.6378158288        0.0744519371
 C          7.0090478500        2.0222085030        0.1191077757
 C          8.3708200975        2.3061313495        0.0318216795
 C          8.8090660561        3.6149693806        0.0803473499
 C          7.8966280264        4.6496250369        0.2170982245
 C          6.5407783872        4.3722244618        0.3048082749
 C          6.0952510367        3.0662643506        0.2559682988
 N          5.2497486524        0.4067949846        0.1090339731
 C          2.9773353916       -2.4884639559        0.1927406432
 C          1.6397473106       -2.7867710465        0.2215064801
 C          0.7080364749       -1.7440443311        0.1727874734
 N         -5.7186523855       -1.9359293863        0.0248419052
 C         -7.4955266419       -4.0694716559       -0.2577921834
 C         -8.3964598154       -5.1071257694       -0.3910108116
 H        -10.4604647478       -5.6608403166       -0.5325572927
 H        -11.2789013779       -3.3420616253       -0.3570247583
 H         -9.6631119188       -1.4793104855       -0.1181058761
 H         -5.1132532538        2.7873079362        0.4003721044
 H         -5.9353349430        5.1192209483        0.5352431692
 H         -8.3537270447        5.5784663191        0.3963157303
 H         -9.9495656529        3.7196997665        0.1211720811
 H         -9.1166184605        1.3902996380       -0.0134086546
 H         -3.7170446375       -3.3001116681        0.2316267099
 H         -1.2974183828       -3.8211878030        0.2799801780
 H         -2.8817782979        0.8940605720        0.0397851640
 H         -0.1602767523       -0.0110480437        2.6469334071
 H         -0.0972330723        1.5440891775        4.5580341696
 H          0.1087012093        3.9756324982        4.1597436757
 H          0.2403125432        4.8292878386        1.8359101128
 H          0.2132039079        4.3704495116       -2.6318772883
 H          0.0585985873        3.0611140788       -4.7312096962
 H         -0.1425118105        0.5988600412       -4.6227959837
 H         -0.1813038100       -0.5334374988       -2.4371075651
 H          2.8509962018        0.9147277067        0.0231518692
 H          6.4658854168       -4.2033007727       -0.0774503435
 H          8.1004786691       -6.0566174376       -0.2463114565
 H         10.5115453767       -5.5583159503       -0.3732599297
 H         11.2930349504       -3.2208007542       -0.3272688801
 H          9.6498973602       -1.3749827862       -0.1543839036
 H          9.0668131456        1.4888518057       -0.0739721238
 H          9.8648810295        3.8327835206        0.0120120082
 H          8.2421309209        5.6723374621        0.2564501053
 H          5.8313307615        5.1795288703        0.4129613925
 H          5.0441163346        2.8335356106        0.3257793248
 H          3.7187449537       -3.2717244998        0.2254524334
 H          1.3033700479       -3.8114512312        0.2783164506
 H         -6.4330419753       -4.2539749173       -0.2309628365
 H         -8.0399175573       -6.1239478181       -0.4674487296
