  97
       -159.32951746
 C        -10.2164478366       -3.1654876283       -3.5670298515
 C        -10.8974937995       -2.3419199826       -2.6840129502
 C        -10.1975252235       -1.5542701230       -1.7910208922
 C         -8.8044568707       -1.5853612296       -1.7762286413
 C         -8.0605397891       -0.7511933637       -0.8320371692
 N         -8.7547673613        0.0021056198        0.0161908358
 C         -8.0407879382        0.7452279301        0.8568152809
 C         -8.7604864604        1.5900956650        1.8102053739
 C         -8.0564307257        2.4129596349        2.6871972596
 C         -8.7382564512        3.2097101808        3.5860672513
 C        -10.1240606548        3.1926263777        3.6184346560
 C        -10.8291678596        2.3757508938        2.7481830486
 C        -10.1533629533        1.5768557334        1.8465320330
 N         -6.7113680373        0.7680493477        0.8827196279
 C         -6.0977988199       -0.0153884075        0.0000802604
 C         -4.6369247862       -0.0206715072       -0.0086845767
 C         -3.9392332714       -0.7804081986       -0.9466129519
 C         -2.5611526827       -0.7794035444       -0.9589507035
 C         -1.8533383066       -0.0214467889       -0.0260835574
 N         -0.4563710037       -0.0183113756       -0.0344204731
 C          0.3495338635        1.1031733493        0.0232230010
 C          0.0041813379        2.4470174944        0.0318579450
 C          1.0223458997        3.3776125692        0.0655171637
 C          2.3731721542        3.0048969159        0.0746055387
 C          3.4214892800        4.0368623417        0.1137305512
 C          3.2800488439        5.1462614553        0.9576620519
 C          4.2359849395        6.1408558091        1.0320970211
 C          5.3558007250        6.0094340876        0.2310056419
 O          6.4049140450        6.8738572910        0.1498970862
 C          7.2658080948        6.3420460714       -0.7611076818
 C          8.4734996932        6.8829242102       -1.1638548656
 C          9.2002047011        6.1785198477       -2.1074262142
 C          8.7373916063        4.9744767688       -2.6316628761
 C          7.5314870085        4.4348555705       -2.2286876613
 C          6.7848396274        5.1244158883       -1.2829677572
 C          5.5230620940        4.9041478256       -0.6264472033
 C          4.5538552055        3.9147824068       -0.6822519127
 C          2.7129752453        1.6589069574        0.0310593618
 C          1.7058476838        0.7073475178        0.0032562761
 C          1.7109074200       -0.7286434856       -0.0587870430
 C          2.7249461876       -1.6729120891       -0.0775876171
 C          2.3952488572       -3.0213205154       -0.1222365014
 C          3.4525286266       -4.0445549813       -0.1468044543
 C          3.3342638385       -5.1551213009       -0.9924929927
 C          4.3008503413       -6.1405360526       -1.0522159194
 C          5.4068045158       -5.9989421937       -0.2336586526
 O          6.4626047799       -6.8535687822       -0.1357469555
 C          7.3033198798       -6.3144033368        0.7897376727
 C          8.5087745524       -6.8443885569        1.2128231756
 C          9.2123558389       -6.1342775556        2.1694513659
 C          8.7295175136       -4.9350540423        2.6867373262
 C          7.5259931920       -4.4061622274        2.2633229688
 C          6.8024942024       -5.1016410765        1.3041341584
 C          5.5499106588       -4.8926188052        0.6267350275
 C          4.5710088680       -3.9121863478        0.6670045982
 C          1.0472811216       -3.4038533384       -0.1256676699
 C          0.0221011325       -2.4805287947       -0.0999952039
 C          0.3575001860       -1.1342807662       -0.0874432497
 C         -2.5492127730        0.7354464758        0.9167562892
 C         -3.9269323634        0.7373194695        0.9215878172
 N         -6.7317083928       -0.7919238335       -0.8742109402
 C         -8.1246439949       -2.4147545240       -2.6660303412
 C         -8.8306251513       -3.2003395094       -3.5561277175
 H        -10.7662157654       -3.7805937189       -4.2644774716
 H        -11.9773598476       -2.3162103336       -2.6944551857
 H        -10.7101632711       -0.9069047020       -1.0971714590
 H         -6.9786025815        2.4136097026        2.6470372472
 H         -8.1909160424        3.8472339941        4.2649626750
 H        -10.6550128406        3.8166029610        4.3225507049
 H        -11.9089711230        2.3639871541        2.7754972442
 H        -10.6849962308        0.9345562492        1.1623377026
 H         -4.4979016450       -1.3570830071       -1.6665581519
 H         -2.0205248579       -1.3465507647       -1.7017681876
 H         -1.0276853290        2.7618642825       -0.0030463722
 H          0.7728324630        4.4282350546        0.0579851246
 H          2.4035812236        5.2140789407        1.5843195201
 H          4.1207809029        6.9882381036        1.6888591140
 H          8.8262923051        7.8159328343       -0.7544803216
 H         10.1474558701        6.5719101716       -2.4444763799
 H          9.3350749713        4.4561149976       -3.3665463707
 H          7.1732084626        3.5018577234       -2.6360830828
 H          4.6684581394        3.0752198867       -1.3506020683
 H          3.7487089055        1.3548096406        0.0356200247
 H          3.7585027864       -1.3615259003       -0.0735050658
 H          2.4675233219       -5.2314404490       -1.6320970138
 H          4.2038472741       -6.9887168021       -1.7108957286
 H          8.8774456120       -7.7735358211        0.8087940671
 H         10.1571156220       -6.5193410747        2.5226066866
 H          9.3094605491       -4.4120041588        3.4324269786
 H          7.1520313748       -3.4768669726        2.6650840607
 H          4.6671330446       -3.0716918369        1.3372736158
 H          0.8054575631       -4.4562771104       -0.1207397736
 H         -1.0076370187       -2.8029530071       -0.0734303180
 H         -1.9988810512        1.3019430048        1.6528952044
 H         -4.4763300309        1.3143492115        1.6482194217
 H         -7.0464139338       -2.4294075463       -2.6425717449
 H         -8.3021959606       -3.8429831178       -4.2450871564
