  66
  -114.527853729700       0.310025274916888      !
 O         -1.3675112116        2.6198317164       -3.5025401004
 S         -0.2755510739        2.7037532645       -2.5567312230
 O          0.9952450978        3.1995745696       -3.0376213153
 C         -0.7992977019        3.6154452859       -1.1271310381
 C         -2.1583713196        3.6774390457       -0.7946565116
 C         -2.5078111611        4.1539138734        0.4517678817
 C         -1.4947624814        4.5314765615        1.3286565334
 N         -0.1988484212        4.4633890194        1.0124964484
 C          0.1365618089        4.0180563229       -0.1748825859
 C         -0.0323593074        1.1464046874       -1.7589735040
 C          1.2206683779        0.8645212929       -1.1947012922
 C          1.3444362720       -0.1631004769       -0.2923763625
 N          2.6072795154       -0.4593780314        0.2857373177
 C          2.8560133548       -0.1140491960        1.6013982453
 C          1.9250572931        0.5771680464        2.3756450744
 C          2.2060247862        0.8935169936        3.6905871011
 C          3.4217717343        0.5324281761        4.2582376113
 C          4.3678542623       -0.1329983571        3.4998177425
 C          4.0977631943       -0.4527488773        2.1778349193
 O          5.0718598906       -1.0903386661        1.4680288358
 C          4.8309775056       -1.3741627835        0.1559826547
 C          5.8438488675       -1.9842537988       -0.5671494350
 C          5.6466441274       -2.3108985325       -1.8966070820
 C          4.4279986798       -2.0333482013       -2.5052197018
 C          3.4129908532       -1.4231048050       -1.7957264126
 C          3.5966253470       -1.0729197907       -0.4584545309
 C          0.2315939309       -0.9276444307        0.1018451453
 C         -1.0198845182       -0.6092664738       -0.4531438523
 N         -2.1647972597       -1.3270475695       -0.0152055437
 C         -2.3976619546       -2.6172716808       -0.4520917116
 C         -1.5320737851       -3.2699703783       -1.3277885292
 C         -1.7996026058       -4.5597479265       -1.7445412633
 C         -2.9382864319       -5.2213992979       -1.3016089149
 C         -3.8167801408       -4.5854308205       -0.4430243542
 C         -3.5572926838       -3.2919515022       -0.0171430311
 O         -4.4614936423       -2.7060209557        0.8189333220
 C         -4.2175150880       -1.4318526660        1.2407305210
 C         -5.1427908893       -0.8479102287        2.0919108041
 C         -4.9364130982        0.4354088198        2.5648636396
 C         -3.7969627369        1.1368175183        2.1898769755
 C         -2.8723521799        0.5680314014        1.3359199590
 C         -3.0677169521       -0.7198182422        0.8389278386
 C         -1.1584128690        0.4038986186       -1.3697739810
 H         -2.8896201880        3.3666697652       -1.5239071331
 H         -3.5436519031        4.2329931187        0.7450427612
 H         -1.7110906583        4.9054922245        2.3190508946
 H          1.1919842736        3.9733848967       -0.4048351243
 H          2.0641995699        1.4669225682       -1.4881449754
 H          0.9870060835        0.8712831146        1.9331471868
 H          1.4737929632        1.4298548189        4.2728966038
 H          3.6357082360        0.7781113248        5.2860139760
 H          5.3259749330       -0.4116414365        3.9081939284
 H          6.7752180872       -2.1939870280       -0.0660600158
 H          6.4384068645       -2.7826291843       -2.4559532066
 H          4.2688441905       -2.2927595280       -3.5399520762
 H          2.4695590740       -1.2034134737       -2.2693337722
 H          0.3321521527       -1.7223182799        0.8220586646
 H         -0.6542911847       -2.7512909613       -1.6790528848
 H         -1.1181114779       -5.0498452418       -2.4218226068
 H         -3.1444065521       -6.2275844078       -1.6296961832
 H         -4.7131790738       -5.0703389240       -0.0910600304
 H         -6.0133517026       -1.4195119130        2.3710117755
 H         -5.6589819490        0.8850717485        3.2268484784
 H         -3.6231368827        2.1334474131        2.5636017884
 H         -1.9938072723        1.1206620518        1.0436286574
 H         -2.1173154448        0.6523564167       -1.7933777510
  66
  -114.527483182800       0.209462140208620      !
 O         -1.5813906584        3.0384609818       -3.0156760074
 S         -0.3920501065        2.9868123910       -2.1927745180
 O          0.8356265591        3.5160701395       -2.7454242762
 C         -0.7203622122        3.7312353526       -0.6163061927
 C         -2.0193604132        3.7313524356       -0.0918588206
 C         -2.1915988718        4.0781507503        1.2313132871
 C         -1.0672989157        4.3883475254        1.9930479518
 N          0.1702701195        4.3832339283        1.4930556468
 C          0.3369399302        4.0660709509        0.2301661233
 C         -0.1245286982        1.3377707835       -1.6179584504
 C          1.1328239115        1.0112930304       -1.0888100114
 C          1.2758225147       -0.1099188982       -0.3067709462
 N          2.5364733326       -0.4085449950        0.2698499762
 C          3.0783147881        0.4471452106        1.2154330259
 C          2.3989513213        1.5724314305        1.6797963924
 C          2.9809235388        2.4153815305        2.6054323205
 C          4.2502652546        2.1449701119        3.1010513140
 C          4.9284713821        1.0150458056        2.6797579122
 C          4.3523582298        0.1645823931        1.7486530454
 O          5.0591981418       -0.9440383163        1.3826282465
 C          4.5110180121       -1.7769057186        0.4534115850
 C          5.2457887091       -2.8912932721        0.0775027949
 C          4.7503207358       -3.7589728235       -0.8789891327
 C          3.5225499463       -3.5035795656       -1.4751403153
 C          2.7834073436       -2.3955816981       -1.1084318464
 C          3.2520071139       -1.5229360182       -0.1277366886
 C          0.1791874765       -0.9440828813       -0.0242720064
 C         -1.0734867127       -0.5979224986       -0.5602514424
 N         -2.1930003885       -1.4139975210       -0.2519370134
 C         -2.2982680655       -2.6852687540       -0.7851884769
 C         -1.3632048060       -3.1915914610       -1.6863211850
 C         -1.4946529218       -4.4704143242       -2.1909922871
 C         -2.5683133877       -5.2688250574       -1.8149250482
 C         -3.5218884285       -4.7758276833       -0.9430262626
 C         -3.3989260637       -3.4933317433       -0.4305269937
 O         -4.3778070997       -3.0494234220        0.4078649342
 C         -4.2751646865       -1.7829728028        0.9033076722
 C         -5.2862027493       -1.3392790871        1.7414886396
 C         -5.2237097590       -0.0732290953        2.2940395380
 C         -4.1388368770        0.7497073371        2.0150905572
 C         -3.1286027293        0.3212424663        1.1770211160
 C         -3.1820884521       -0.9445988835        0.5942651097
 C         -1.2337356487        0.5250104026       -1.3363088030
 H         -2.8445058423        3.4765698817       -0.7377891060
 H         -3.1758309959        4.1122440483        1.6731710529
 H         -1.1468200149        4.6548601028        3.0368253896
 H          1.3478030995        4.0805471321       -0.1521267659
 H          1.9667073532        1.6565986165       -1.3093332302
 H          1.4121080817        1.7900666089        1.3067453843
 H          2.4341380067        3.2869154149        2.9284893459
 H          4.7072608106        2.8071116162        3.8187852908
 H          5.9080708901        0.7699045923        3.0577294918
 H          6.2037652330       -3.0529425395        0.5448108851
 H          5.3248984902       -4.6249438981       -1.1659625241
 H          3.1405319394       -4.1676508717       -2.2343680701
 H          1.8388200216       -2.1885257666       -1.5836178676
 H          0.2898463830       -1.8105629519        0.6061479174
 H         -0.5419950975       -2.5645718448       -1.9929193396
 H         -0.7594851607       -4.8447427791       -2.8857782388
 H         -2.6670463637       -6.2676864138       -2.2083745571
 H         -4.3746386769       -5.3651253460       -0.6467028457
 H         -6.1076873745       -2.0061513293        1.9486684099
 H         -6.0126399606        0.2679343313        2.9447981168
 H         -4.0759031085        1.7316997398        2.4561209373
 H         -2.2906198846        0.9661936559        0.9663428029
 H         -2.1930750801        0.7998575452       -1.7421783549
  66
  -114.527426313600       0.197228768016065      !
 O         -1.3177342463        2.7183559546       -3.4734656897
 S         -0.2491089338        2.7670577573       -2.4995373110
 O          1.0330039744        3.2782199972       -2.9311690196
 C         -0.8162706310        3.6323246483       -1.0555109238
 C         -2.1886937275        3.7601235876       -0.8108240519
 C         -2.5958017079        4.1980782470        0.4327268157
 C         -1.6260010307        4.4691606065        1.3930299148
 N         -0.3173737793        4.3342966037        1.1619846891
 C          0.0724422894        3.9281821443       -0.0233247070
 C         -0.0193281028        1.1850086109       -1.7479550605
 C          1.2336041589        0.8829688378       -1.1915703595
 C          1.3494368342       -0.1574124590       -0.3032752534
 N          2.6123126198       -0.4732158526        0.2659675402
 C          2.8883605040       -0.1025747129        1.5688576157
 C          1.9836577718        0.6266480327        2.3388935904
 C          2.2925966530        0.9708197534        3.6407284323
 C          3.5095793707        0.5990358671        4.1978728425
 C          4.4287265856       -0.1075444316        3.4430816281
 C          4.1305307606       -0.4557768931        2.1345605330
 O          5.0774535285       -1.1364834294        1.4272832776
 C          4.8091762029       -1.4477239794        0.1264495420
 C          5.7944353707       -2.1018175475       -0.5961031582
 C          5.5683598956       -2.4543334305       -1.9146567660
 C          4.3496678394       -2.1571301576       -2.5127083083
 C          3.3617848605       -1.5031867918       -1.8032909290
 C          3.5743128787       -1.1293654216       -0.4770121374
 C          0.2323932325       -0.9162021361        0.0844914845
 C         -1.0184939986       -0.5834208540       -0.4676932313
 N         -2.1643897671       -1.3043632276       -0.0411342350
 C         -2.3556051638       -2.6155868859       -0.4344165279
 C         -1.4586718073       -3.2779245857       -1.2711767115
 C         -1.6824722565       -4.5901422646       -1.6395641662
 C         -2.8100059409       -5.2666794074       -1.1883553455
 C         -3.7219539771       -4.6212613187       -0.3734726225
 C         -3.5064225477       -3.3045972773        0.0041820398
 O         -4.4437950603       -2.7109898051        0.7961864888
 C         -4.2386837051       -1.4187123307        1.1796089527
 C         -5.1944297734       -0.8304719675        1.9934962970
 C         -5.0259983815        0.4697741289        2.4330821851
 C         -3.8915103946        1.1837441299        2.0639927860
 C         -2.9374028456        0.6115203721        1.2463186454
 C         -3.0959028080       -0.6926824294        0.7787209894
 C         -1.1493283310        0.4436738931       -1.3697421136
 H         -2.8834680387        3.5268676701       -1.6017647960
 H         -3.6433362907        4.3266896226        0.6593014820
 H         -1.8883792203        4.8073280345        2.3850887031
 H          1.1372719802        3.8301286426       -0.1830265545
 H          2.0818115138        1.4809286045       -1.4803163206
 H          1.0446586517        0.9285253236        1.9036183988
 H          1.5807262800        1.5372033999        4.2197441409
 H          3.7459227162        0.8669372018        5.2151581078
 H          5.3865461841       -0.3970681935        3.8444983271
 H          6.7276725241       -2.3244285813       -0.1042413827
 H          6.3389759936       -2.9604741817       -2.4735481898
 H          4.1688204313       -2.4345901155       -3.5391753687
 H          2.4181651880       -1.2666768538       -2.2684577933
 H          0.3268234396       -1.7176512733        0.7980034157
 H         -0.5900616650       -2.7495376406       -1.6304333398
 H         -0.9758778726       -5.0873444775       -2.2851313291
 H         -2.9806502896       -6.2911802620       -1.4775042296
 H         -4.6116717054       -5.1159025209       -0.0183423369
 H         -6.0577639410       -1.4133805549        2.2716460422
 H         -5.7719324589        0.9229647548        3.0659372764
 H         -3.7451660264        2.1929728651        2.4146505189
 H         -2.0626658761        1.1739481713        0.9617876549
 H         -2.1069566277        0.7053650110       -1.7889068072
  66
  -114.527248188200       0.163346373098696      !
 O         -1.6763196293        2.9116152297       -3.0694171245
 S         -0.4268161834        2.8674206020       -2.3424011032
 O          0.7575981587        3.3700412441       -3.0045295158
 C         -0.6093489635        3.6425664771       -0.7570543683
 C          0.5278769470        4.0172406060       -0.0272468225
 C          0.3792013192        4.3259625871        1.3081125265
 C         -0.8896349340        4.2381105315        1.8761812526
 N         -1.9718994153        3.8820290714        1.1797515033
 C         -1.8349673408        3.5905523514       -0.0928841480
 C         -0.1380095614        1.2322236858       -1.7365000610
 C          1.1289576458        0.9369183104       -1.2021587637
 C          1.2725492787       -0.1337545230       -0.3550263685
 N          2.5427193025       -0.4097937618        0.2238577900
 C          2.9022704210        0.2125033347        1.4032831714
 C          2.0515523560        1.0983689748        2.0617692172
 C          2.4455924368        1.6964199876        3.2431293477
 C          3.6944103264        1.4249505087        3.7882313971
 C          4.5536599519        0.5502375462        3.1473328351
 C          4.1683335456       -0.0582489273        1.9630280893
 O          5.0504492777       -0.9143856433        1.3706010521
 C          4.6877689554       -1.4997491246        0.1924627943
 C          5.5988184742       -2.3472507356       -0.4180363931
 C          5.2784494024       -2.9624069779       -1.6154299290
 C          4.0436549262       -2.7284903106       -2.2088306210
 C          3.1282592891       -1.8851420219       -1.6099718003
 C          3.4314819481       -1.2591891352       -0.4024332350
 C          0.1838292188       -0.9438299800       -0.0003382229
 C         -1.0795022675       -0.6269193370       -0.5373782690
 N         -2.2047583887       -1.3954953679       -0.1454407008
 C         -2.3292684511       -2.7171417014       -0.5329855390
 C         -1.3723893745       -3.3533992343       -1.3225449599
 C         -1.5274609625       -4.6782661445       -1.6826741847
 C         -2.6441114369       -5.3936625649       -1.2715059247
 C         -3.6173248597       -4.7739585543       -0.5084480705
 C         -3.4711814256       -3.4448401379       -0.1409691435
 O         -4.4717542675       -2.8802829949        0.5924543390
 C         -4.3397745780       -1.5727704398        0.9607049564
 C         -5.3657414155       -1.0076453857        1.7025773742
 C         -5.2759412373        0.3078403904        2.1222742194
 C         -4.1462063457        1.0561843514        1.8164018900
 C         -3.1202998955        0.5009812289        1.0779596533
 C         -3.2044735201       -0.8117030723        0.6160963177
 C         -1.2416996926        0.4416709666       -1.3858442416
 H          1.4802854076        4.0666869168       -0.5302032998
 H          1.2260820945        4.6273645097        1.9058957581
 H         -1.0603464659        4.4611354152        2.9193280750
 H         -2.7265387595        3.3054172164       -0.6337200353
 H          1.9633207236        1.5652474149       -1.4650046803
 H          1.0852078587        1.3161692317        1.6358593697
 H          1.7723873681        2.3774772158        3.7393235869
 H          3.9987565936        1.8946061090        4.7098380366
 H          5.5291660804        0.3232385732        3.5465349408
 H          6.5509907429       -2.5079977832        0.0618694361
 H          5.9909791886       -3.6206134251       -2.0863842905
 H          3.7946684862       -3.2039597464       -3.1444297762
 H          2.1731936098       -1.6904712158       -2.0720044863
 H          0.3050824310       -1.7652584568        0.6859099281
 H         -0.5111868028       -2.7957477279       -1.6531848605
 H         -0.7738755469       -5.1532192407       -2.2909785378
 H         -2.7615530971       -6.4278906603       -1.5524875772
 H         -4.5032958619       -5.2982060402       -0.1881078269
 H         -6.2220967082       -1.6189997013        1.9381350220
 H         -6.0804242272        0.7439664482        2.6923836366
 H         -4.0527071989        2.0788057342        2.1458751940
 H         -2.2478802746        1.0904063357        0.8506001220
 H         -2.2068199556        0.7003357335       -1.7893721184
  66
  -114.526956273500       0.119937443759732      !
 O         -1.2769805115        2.5701432737       -3.5896496891
 S         -0.2398392854        2.6842053172       -2.5870323831
 O          1.0419736414        3.2096188787       -3.0026020187
 C         -0.8681925006        3.5889790721       -1.1950283440
 C         -2.2476188069        3.6363420207       -0.9578980737
 C         -2.6879406426        4.1114713219        0.2603825987
 C         -1.7424631579        4.5040601512        1.2022548042
 N         -0.4266895479        4.4487241716        0.9777250628
 C         -0.0055873179        4.0020662696       -0.1819456212
 C          0.0030700573        1.1349270080       -1.7725050166
 C          1.2529752303        0.8551568750       -1.2019971992
 C          1.3749523425       -0.1703227413       -0.2960385112
 N          2.6347724955       -0.4727617423        0.2818089391
 C          2.8537288670       -0.2130135943        1.6233413941
 C          1.9016498812        0.4186937716        2.4227905342
 C          2.1515342485        0.6464908849        3.7622484690
 C          3.3576664183        0.2568643350        4.3307493947
 C          4.3263949490       -0.3452219519        3.5484274868
 C          4.0871204480       -0.5757660914        2.2020790098
 O          5.0847291274       -1.1504707859        1.4722173436
 C          4.8758057711       -1.3449402949        0.1386407146
 C          5.9145495181       -1.8893738726       -0.6000816004
 C          5.7519967385       -2.1301785943       -1.9522282353
 C          4.5408661403       -1.8348161379       -2.5667332218
 C          3.5004605812       -1.2893541464       -1.8412730848
 C          3.6499462121       -1.0212916317       -0.4808250262
 C          0.2570129192       -0.9270392919        0.1023628441
 C         -0.9932543605       -0.6027056315       -0.4502997205
 N         -2.1445559227       -1.2970958928        0.0086398153
 C         -2.4074534921       -2.5862675825       -0.4116686564
 C         -1.5637113108       -3.2656831993       -1.2884523848
 C         -1.8608310044       -4.5542415558       -1.6876255077
 C         -3.0087430182       -5.1878815636       -1.2261488532
 C         -3.8656807063       -4.5252863024       -0.3660989106
 C         -3.5760778957       -3.2329144754        0.0434821851
 O         -4.4581839793       -2.6200705897        0.8838133684
 C         -4.1799539539       -1.3499343599        1.2955755852
 C         -5.0788359334       -0.7408810772        2.1575401657
 C         -4.8368267807        0.5398007284        2.6203425350
 C         -3.6879486387        1.2144407689        2.2237696225
 C         -2.7896578053        0.6209440740        1.3589546081
 C         -3.0203880653       -0.6652466901        0.8725741175
 C         -1.1270324119        0.4003361704       -1.3783728115
 H         -2.9223423968        3.3166212431       -1.7357624671
 H         -3.7421510757        4.1763243442        0.4826726408
 H         -2.0307336895        4.8808547158        2.1730902907
 H          1.0638745692        3.9663146204       -0.3370179701
 H          2.0964456994        1.4587120919       -1.4938014171
 H          0.9705913279        0.7366612035        1.9822851193
 H          1.4016695225        1.1359180995        4.3632248809
 H          3.5471620549        0.4321070677        5.3775182833
 H          5.2790980219       -0.6420993707        3.9565443093
 H          6.8379083851       -2.1177440289       -0.0924331901
 H          6.5637943977       -2.5504064073       -2.5237596937
 H          4.4066421734       -2.0293688360       -3.6190125608
 H          2.5629970020       -1.0592495904       -2.3212951301
 H          0.3533223085       -1.7189069522        0.8263145399
 H         -0.6793111032       -2.7680699984       -1.6536421692
 H         -1.1959150300       -5.0660295927       -2.3653238334
 H         -3.2379291263       -6.1932099121       -1.5410064183
 H         -4.7679789134       -4.9881690092       -0.0000088481
 H         -5.9573623095       -1.2915887282        2.4531433581
 H         -5.5382946267        1.0086627226        3.2915656525
 H         -3.4868684854        2.2092860988        2.5882534324
 H         -1.9043811103        1.1532739747        1.0502380022
 H         -2.0855398417        0.6511663146       -1.8012439464
