  66
  -114.892646790000       0.556912341993131      !
 O         -1.0743246487        2.9615494741       -3.3018774350
 S          0.1438488976        2.6971053772       -2.5666986014
 O          1.3995791270        2.8124552309       -3.2756143347
 C          0.1830097992        3.6863556249       -1.0946058270
 C         -1.0107722056        4.0929985274       -0.4847144754
 C         -0.9486553747        4.6299716846        0.7835603025
 C          0.2917519692        4.7215786236        1.4108639929
 N          1.4277819740        4.3293376405        0.8301933374
 C          1.3741766537        3.8294653487       -0.3824547113
 C          0.0461284349        1.1178180234       -1.7808095483
 C          1.2292434799        0.5369876852       -1.3008134155
 C          1.1668734970       -0.4793273782       -0.3775780360
 N          2.3652202583       -1.0286520115        0.1450281307
 C          3.2024974532       -0.2389785772        0.9165901573
 C          2.8821609134        1.0733256819        1.2610885834
 C          3.7527084063        1.8377973988        2.0119470662
 C          4.9579428345        1.3034029293        2.4499213092
 C          5.2805630471       -0.0078380569        2.1486840369
 C          4.4131758343       -0.7817071111        1.3930936959
 O          4.7745712279       -2.0734627016        1.1413049829
 C          3.9386898483       -2.8376481680        0.3830596001
 C          4.3244472612       -4.1434950870        0.1203619459
 C          3.5275925559       -4.9582112394       -0.6635342805
 C          2.3478943150       -4.4612998552       -1.2015251699
 C          1.9553444835       -3.1615216298       -0.9466774560
 C          2.7301755193       -2.3320338003       -0.1376990716
 C         -0.0683757920       -0.9536523404        0.0993062615
 C         -1.2427502200       -0.3560484235       -0.3905997007
 N         -2.4927046131       -0.8039045200        0.1107844152
 C         -2.9711826904       -2.0568660407       -0.2249462984
 C         -2.2950800001       -2.8971544493       -1.1078657075
 C         -2.7976137944       -4.1469760071       -1.4124396776
 C         -3.9918250874       -4.5818734356       -0.8499837439
 C         -4.6921941812       -3.7529704160        0.0073156077
 C         -4.1960656692       -2.4964474539        0.3196897826
 O         -4.9367107586       -1.7118714197        1.1527858175
 C         -4.4659827406       -0.4673897699        1.4520794836
 C         -5.2376340436        0.3254531204        2.2872823511
 C         -4.7995688159        1.5870500603        2.6458523837
 C         -3.5780885709        2.0541680537        2.1749247172
 C         -2.8033571054        1.2761232196        1.3376953822
 C         -3.2359089396        0.0087020680        0.9486425021
 C         -1.1959038046        0.6671934626       -1.3069536198
 H         -1.9371850367        3.9893326926       -1.0269484871
 H         -1.8398712802        4.9759844203        1.2846819531
 H          0.3931699200        5.1235236361        2.4083500856
 H          2.3095749701        3.5300756562       -0.8336725763
 H          2.1707002171        0.9075075447       -1.6706588284
 H          1.9483261040        1.4973533982        0.9316272813
 H          3.4808960973        2.8552111764        2.2441083146
 H          5.6406290814        1.9028091776        3.0304986159
 H          6.2010137675       -0.4556779635        2.4874786869
 H          5.2546342197       -4.4949526497        0.5368426310
 H          3.8313656580       -5.9732935472       -0.8628557197
 H          1.7324374916       -5.0873712776       -1.8281053430
 H          1.0486545006       -2.7711038558       -1.3784254831
 H         -0.1136701004       -1.7359636862        0.8384948508
 H         -1.3795527950       -2.5511661719       -1.5591344318
 H         -2.2586014408       -4.7832468772       -2.0965054715
 H         -4.3804772215       -5.5590341498       -1.0874309659
 H         -5.6296320020       -4.0557680381        0.4452496450
 H         -6.1740203462       -0.0705894918        2.6461834179
 H         -5.4033261169        2.2004819811        3.2950584177
 H         -3.2230794848        3.0303870172        2.4643078862
 H         -1.8570029409        1.6464082672        0.9773269382
 H         -2.0923322978        1.1347391949       -1.6790021843
  66
  -114.892110770000       0.315826892005573      !
 O         -1.1977382488        2.8394314562       -3.3484211686
 S          0.0689548851        2.5583227273       -2.7094918228
 O          1.2660873983        2.6416886663       -3.5180725204
 C          0.2546227853        3.5480043184       -1.2488236906
 C          1.5193754425        3.6974140271       -0.6620017555
 C          1.5937313962        4.2006359384        0.6193401954
 C          0.4103070297        4.5242584391        1.2789921827
 N         -0.7933961336        4.3822939550        0.7185909073
 C         -0.8681454266        3.9065924455       -0.5026507516
 C         -0.0028915820        0.9951524051       -1.8874632823
 C          1.1970745191        0.4450088885       -1.4023290143
 C          1.1532782189       -0.5095479522       -0.4166844079
 N          2.3658407173       -1.0364922399        0.1092987902
 C          2.9919857111       -0.3877048666        1.1555264445
 C          2.4660898790        0.7675714580        1.7307248611
 C          3.1194906575        1.3842949653        2.7801360747
 C          4.3091406398        0.8631025039        3.2735622408
 C          4.8478957954       -0.2815475173        2.7134704056
 C          4.1999344873       -0.9109259518        1.6621194232
 O          4.7704369514       -2.0377443637        1.1455197321
 C          4.1507426898       -2.6502314827        0.0952646550
 C          4.7493715555       -3.7787361563       -0.4424156840
 C          4.1608447324       -4.4333376904       -1.5100943971
 C          2.9701591396       -3.9578609156       -2.0465162858
 C          2.3650854763       -2.8336473698       -1.5194041905
 C          2.9409039655       -2.1629038523       -0.4421639270
 C         -0.0615378567       -0.9510217441        0.1279807086
 C         -1.2528326017       -0.3815263846       -0.3632856928
 N         -2.4884259144       -0.7689488968        0.2144153315
 C         -2.9823999862       -2.0484851166        0.0377250186
 C         -2.3050367578       -3.0097903107       -0.7112186875
 C         -2.8263602655       -4.2808524616       -0.8583084375
 C         -4.0382388013       -4.6172819390       -0.2701543084
 C         -4.7382616599       -3.6708274574        0.4562248126
 C         -4.2236856077       -2.3924090231        0.6105369097
 O         -4.9670462412       -1.4951791117        1.3177668857
 C         -4.4714702411       -0.2335700269        1.4770251123
 C         -5.2382329451        0.6719916213        2.1942294207
 C         -4.7758467042        1.9588876572        2.4059129062
 C         -3.5320686334        2.3366569154        1.9158272103
 C         -2.7625004149        1.4410302561        1.2005306754
 C         -3.2231690968        0.1499954459        0.9464509658
 C         -1.2275991173        0.5757955749       -1.3486717519
 H          2.3955140652        3.4290536485       -1.2302058143
 H          2.5469022915        4.3401625062        1.1065696482
 H          0.4113177452        4.9144627750        2.2863537730
 H         -1.8542530261        3.8016413909       -0.9330949121
 H          2.1309077594        0.7916564077       -1.8120095750
 H          1.5470545661        1.1777502491        1.3437038143
 H          2.6956903055        2.2762798471        3.2137360838
 H          4.8167197834        1.3479967616        4.0919770519
 H          5.7706328576       -0.7063199608        3.0748950132
 H          5.6748183802       -4.1237971724       -0.0096775213
 H          4.6308785944       -5.3106960240       -1.9248750101
 H          2.5129040172       -4.4647339081       -2.8816262985
 H          1.4472877786       -2.4531303260       -1.9393750741
 H         -0.0806800450       -1.6817107473        0.9192523218
 H         -1.3703108201       -2.7463819622       -1.1790554960
 H         -2.2848978408       -5.0112373681       -1.4387065244
 H         -4.4417092131       -5.6104460838       -0.3850786063
 H         -5.6894535452       -3.8970464855        0.9106000579
 H         -6.1917839336        0.3439453477        2.5759518939
 H         -5.3800619273        2.6607985421        2.9578808770
 H         -3.1494978186        3.3311888732        2.0819446320
 H         -1.7981781163        1.7448956549        0.8290759247
 H         -2.1328009541        1.0275457567       -1.7197926742
  66
  -114.890327500000       4.785363771912769E-002 !
 O         -0.9617497653        2.5266308736       -3.7258583380
 S          0.1840562691        2.4098733867       -2.8504357934
 O          1.4987681598        2.5085983765       -3.4447356316
 C          0.0126426332        3.5628600076       -1.5099841502
 C         -1.2487369149        4.0766771062       -1.1864675128
 C         -1.3952999023        4.7541975558        0.0066147488
 C         -0.2901695320        4.8746418942        0.8434905266
 N          0.9095554046        4.3725389315        0.5391417631
 C          1.0538067964        3.7371230530       -0.5998411530
 C          0.0892903010        0.9266904192       -1.8955838114
 C          1.2789415604        0.3749714013       -1.3946175262
 C          1.2254718427       -0.5432151539       -0.3753270445
 N          2.4226259629       -1.1091640655        0.1395984192
 C          2.9226802474       -0.6689375838        1.3508978021
 C          2.3192665108        0.3609464871        2.0709248236
 C          2.8441934630        0.7670444713        3.2826209420
 C          3.9818317130        0.1581532641        3.7971214737
 C          4.6064808888       -0.8520186091        3.0877814338
 C          4.0901411365       -1.2656469515        1.8692910120
 O          4.7531629107       -2.2526076761        1.2010276747
 C          4.2757258076       -2.6377896225       -0.0174551901
 C          4.9806470039       -3.6112452907       -0.7074744630
 C          4.5315100195       -4.0492035504       -1.9405315245
 C          3.3690538596       -3.5162018732       -2.4844162998
 C          2.6601452499       -2.5437943319       -1.8071424404
 C          3.1024419067       -2.0809379248       -0.5685692201
 C          0.0025692838       -0.9277504093        0.1996105120
 C         -1.1769375290       -0.3466422204       -0.3018345582
 N         -2.4138733701       -0.6826402610        0.3079872498
 C         -2.9698336694       -1.9347896180        0.1247608728
 C         -2.3643367324       -2.9067278821       -0.6702597242
 C         -2.9491854555       -4.1482136594       -0.8263886154
 C         -4.1546304592       -4.4435636458       -0.2000541652
 C         -4.7811939050       -3.4865167637        0.5769446095
 C         -4.2021757132       -2.2374701883        0.7421766432
 O         -4.8686905699       -1.3260809070        1.5060062246
 C         -4.3051938883       -0.0969232229        1.6812415007
 C         -4.9883534625        0.8168325164        2.4687904364
 C         -4.4520380137        2.0701094305        2.7009703540
 C         -3.2215867595        2.4094256235        2.1497014799
 C         -2.5363913042        1.5109686980        1.3562063096
 C         -3.0671892425        0.2478836905        1.0962359921
 C         -1.1427273254        0.5611132623       -1.3316612784
 H         -2.0614499046        3.9405091027       -1.8819262092
 H         -2.3459528198        5.1809464121        0.2883062673
 H         -0.3498933539        5.3879601642        1.7923411902
 H          2.0360300572        3.3431828460       -0.8212683847
 H          2.2136217808        0.6885020116       -1.8287341828
 H          1.4446741360        0.8444690254        1.6664401247
 H          2.3646135540        1.5670566106        3.8237242054
 H          4.3868849074        0.4758264264        4.7444937789
 H          5.4986025499       -1.3327949468        3.4556819816
 H          5.8757502630       -4.0105196632       -0.2582691712
 H          5.0849098525       -4.8046074184       -2.4748543437
 H          3.0139808617       -3.8587672457       -3.4435286869
 H          1.7614448773       -2.1252388261       -2.2312699891
 H         -0.0304473051       -1.6328878458        1.0132616412
 H         -1.4351622501       -2.6737207721       -1.1653194540
 H         -2.4645285713       -4.8887187736       -1.4428320485
 H         -4.6074821169       -5.4141046990       -0.3237635508
 H         -5.7226422653       -3.6821682069        1.0645721029
 H         -5.9349530486        0.5204051450        2.8913725278
 H         -4.9869678413        2.7773237079        3.3141611914
 H         -2.7892660217        3.3792317888        2.3381024911
 H         -1.5846611467        1.7840157738        0.9294714022
 H         -2.0435826353        1.0130483175       -1.7130372773
  66
  -114.890230070000       4.316574388213949E-002 !
 O         -1.0258335444        2.4457227446       -3.7373116122
 S          0.1459068534        2.3515624637       -2.8934321879
 O          1.4422851992        2.4321795019       -3.5297662473
 C          0.0237140781        3.5347968416       -1.5765134760
 C         -1.2325971173        3.9933657986       -1.1607487260
 C         -1.3163446067        4.6919919878        0.0256820719
 C         -0.1537389219        4.8913496940        0.7648433838
 N          1.0420159591        4.4456079647        0.3705453500
 C          1.1263858317        3.7876110661       -0.7610959404
 C          0.0715545678        0.8933369319       -1.8989754316
 C          1.2654832257        0.3605578678       -1.3904279060
 C          1.2209794325       -0.5466108335       -0.3605834362
 N          2.4221856578       -1.0940874838        0.1630020828
 C          2.8880406787       -0.6706705586        1.3941728308
 C          2.2490751533        0.3301479878        2.1249285438
 C          2.7385470040        0.7172300365        3.3572745654
 C          3.8769959519        0.1189201012        3.8832138130
 C          4.5386946617       -0.8593078924        3.1632901170
 C          4.0580794996       -1.2533683164        1.9237121189
 O          4.7588998207       -2.2064985155        1.2457714947
 C          4.3164948167       -2.5727015984        0.0087513862
 C          5.0601336560       -3.5113727104       -0.6890575289
 C          4.6470913302       -3.9321923295       -1.9401974140
 C          3.4804380873       -3.4179939442       -2.4943277828
 C          2.7333366041       -2.4802576985       -1.8098508106
 C          3.1400933559       -2.0323842392       -0.5534250999
 C         -0.0004502552       -0.9365578911        0.2176958571
 C         -1.1826985036       -0.3681475010       -0.2870558908
 N         -2.4185429501       -0.6995998344        0.3299146951
 C         -3.0143112315       -1.9253542739        0.1010917153
 C         -2.4392592230       -2.8842793427       -0.7307023008
 C         -3.0661211742       -4.0980176106       -0.9372553120
 C         -4.2812858412       -4.3768041728       -0.3238832038
 C         -4.8747855916       -3.4325418000        0.4943473055
 C         -4.2537563707       -2.2120352335        0.7099483639
 O         -4.8869912000       -1.3115750076        1.5149966106
 C         -4.2861833393       -0.1059411238        1.7304498433
 C         -4.9385886624        0.8000078415        2.5521892908
 C         -4.3662139723        2.0305049887        2.8194867699
 C         -3.1330785289        2.3553282327        2.2673969901
 C         -2.4777842099        1.4637228712        1.4407809065
 C         -3.0432580301        0.2230803884        1.1496265573
 C         -1.1575554189        0.5273627964       -1.3278889869
 H         -2.0916547594        3.8012638657       -1.7838263593
 H         -2.2616060850        5.0767651264        0.3773354442
 H         -0.1624486576        5.4258745257        1.7038715686
 H          2.1058754941        3.4382260553       -1.0565961953
 H          2.1976646609        0.6786776276       -1.8267522736
 H          1.3740990370        0.8060868018        1.7124395537
 H          2.2313002064        1.4941804276        3.9067787405
 H          4.2537202982        0.4214560137        4.8470623907
 H          5.4332591468       -1.3298614387        3.5384461333
 H          5.9561812674       -3.8977346589       -0.2304178231
 H          5.2303293880       -4.6602827354       -2.4805712248
 H          3.1522043400       -3.7489815890       -3.4669558004
 H          1.8311128080       -2.0778642980       -2.2419428230
 H         -0.0278251204       -1.6366584064        1.0358864713
 H         -1.5013838690       -2.6622972954       -1.2144698790
 H         -2.6060841548       -4.8287693883       -1.5835550367
 H         -4.7681434644       -5.3247105969       -0.4881339298
 H         -5.8219735193       -3.6172048853        0.9752634891
 H         -5.8905195071        0.5167721203        2.9718405277
 H         -4.8775826789        2.7315757231        3.4594307453
 H         -2.6748539041        3.3081306482        2.4803630926
 H         -1.5243581616        1.7251046196        1.0102761476
 H         -2.0621010116        0.9674023959       -1.7136713125
  66
  -114.890064840000       3.624138440002971E-002 !
 O         -0.9617454922        2.3706620807       -3.8179716437
 S          0.1709286122        2.3254999684       -2.9185700138
 O          1.4922300738        2.4411687562       -3.4952719221
 C         -0.0581838436        3.5226148962       -1.6280112636
 C         -1.3480828390        3.9597951069       -1.3019361286
 C         -1.5229053978        4.6754131593       -0.1352455764
 C         -0.4147184055        4.9138308776        0.6711386349
 N          0.8132770819        4.4872964240        0.3631917059
 C          0.9829915682        3.8109618561       -0.7483095358
 C          0.1008462236        0.8751086920       -1.9115066281
 C          1.2932334704        0.3455223198       -1.3979266766
 C          1.2483926029       -0.5607043492       -0.3664275129
 N          2.4453879707       -1.1137334477        0.1569124807
 C          2.8636003581       -0.7634706219        1.4287358461
 C          2.1915195400        0.1872119487        2.1962888038
 C          2.6312189268        0.4984883362        3.4683944365
 C          3.7536255486       -0.1249593337        3.9987465271
 C          4.4509959354       -1.0496415190        3.2426990216
 C          4.0200808870       -1.3671632047        1.9634221521
 O          4.7576871905       -2.2670167383        1.2532058653
 C          4.3664054188       -2.5564898119       -0.0207634824
 C          5.1502647537       -3.4392627763       -0.7469752887
 C          4.7899551852       -3.7875225174       -2.0360070998
 C          3.6341304000       -3.2584582251       -2.5980148627
 C          2.8475257870       -2.3758378394       -1.8849234523
 C          3.2030081190       -1.9970537082       -0.5906370546
 C          0.0246737078       -0.9430381323        0.2144899306
 C         -1.1549501991       -0.3685769812       -0.2877832305
 N         -2.3886533268       -0.6752610669        0.3464250032
 C         -3.0106889180       -1.8899697130        0.1336043809
 C         -2.4630326075       -2.8669454495       -0.6957611183
 C         -3.1155941186       -4.0695342411       -0.8853543802
 C         -4.3304718770       -4.3186555997       -0.2575224485
 C         -4.8968304020       -3.3562902711        0.5586586470
 C         -4.2494365820       -2.1468329639        0.7585227632
 O         -4.8546226161       -1.2278002235        1.5641119604
 C         -4.2235363565       -0.0363712020        1.7701049999
 C         -4.8435217355        0.8860251714        2.5987911362
 C         -4.2392138441        2.1031608154        2.8562656917
 C         -3.0062046892        2.3989847714        2.2866106599
 C         -2.3831732025        1.4912977100        1.4529406278
 C         -2.9805172429        0.2631144126        1.1721649138
 C         -1.1294546751        0.5166550596       -1.3370798034
 H         -2.1600851273        3.7392298235       -1.9761390301
 H         -2.4971279933        5.0418327899        0.1504210180
 H         -0.4942581054        5.4658380577        1.5966423325
 H          1.9863368861        3.4763630799       -0.9728449982
 H          2.2256579713        0.6662604104       -1.8321877283
 H          1.3292468034        0.6847429093        1.7828072337
 H          2.0968016040        1.2360834366        4.0457680991
 H          4.0909798324        0.1171653941        4.9936894507
 H          5.3359672334       -1.5365367304        3.6196572985
 H          6.0348059608       -3.8410193163       -0.2793964509
 H          5.4044936531       -4.4717053235       -2.5985828027
 H          3.3444994614       -3.5342944776       -3.5996070523
 H          1.9527810877       -1.9654211286       -2.3244655771
 H         -0.0053294606       -1.6404830298        1.0349205325
 H         -1.5256874512       -2.6671305918       -1.1903359702
 H         -2.6766558929       -4.8152512409       -1.5292135719
 H         -4.8374351333       -5.2580097296       -0.4090108054
 H         -5.8425528207       -3.5180327034        1.0504643820
 H         -5.7959599833        0.6255704680        3.0317963201
 H         -4.7248079212        2.8166531279        3.5024516514
 H         -2.5236580390        3.3416078915        2.4905942128
 H         -1.4302584407        1.7308225674        1.0091195015
 H         -2.0331672049        0.9592479940       -1.7216411235
