  49
  -89.2699959195000       0.316102176177296      !
 C          8.9996272345       -0.5108205951       -0.0776810531
 O          7.9790905435       -1.4662270252        0.1043369359
 C          6.6881674734       -1.0671879383        0.0644867621
 C          5.7278826729       -2.0775836925        0.2454864862
 C          4.3912089622       -1.7931515045        0.2245173679
 C          3.9306939017       -0.4690637261        0.0179782606
 C          2.5590664197       -0.1514004892       -0.0108964387
 C          1.4465871126       -0.9990530164        0.1099455501
 C          0.2184436165       -0.3937036808       -0.0050896654
 C         -1.0429915863       -1.1046116366       -0.0164730195
 C         -2.0696304145       -0.7467711797       -0.8978087700
 C         -3.2586840949       -1.4425021949       -0.9092322926
 C         -3.4451553752       -2.5111731984       -0.0383901917
 C         -4.7235775275       -3.2887183115       -0.0655143862
 F         -5.7765390229       -2.5732474044       -0.4941882909
 F         -5.0697299561       -3.7827500626        1.1371948509
 F         -4.6553363192       -4.3631740319       -0.8893090874
 C         -2.4266978331       -2.8947629416        0.8293607086
 C         -1.2387418196       -2.1976482475        0.8353753771
 C          0.3328820231        1.0403515718       -0.1451397864
 C         -0.6594324771        1.9952484677       -0.0509266738
 N         -1.9673564766        1.7593622393        0.1699505576
 C         -2.5656224856        2.9587362034        0.1917399561
 C         -3.9150086847        3.2852207381        0.3808079836
 C         -4.2603098853        4.6167733268        0.3616458043
 C         -3.3091195871        5.6248749796        0.1619070210
 C         -1.9668988092        5.3345955734       -0.0265929000
 C         -1.6047347852        4.0024415408       -0.0120037292
 N         -0.4119195345        3.3617872405       -0.1576179729
 S          2.0208852579        1.5177607683       -0.2555551940
 C          4.9109644709        0.5327968596       -0.1595591765
 C          6.2533791489        0.2466451247       -0.1379272092
 H          9.9347235765       -1.0644335132       -0.0137705845
 H          8.9284100010       -0.0314510429       -1.0588440867
 H          8.9766450586        0.2532988156        0.7054030297
 H          6.0792823709       -3.0853495683        0.4021974241
 H          3.6790565730       -2.5899926953        0.3666536450
 H          1.5600836622       -2.0623160617        0.2230221507
 H         -1.9183047587        0.0603974423       -1.5936832528
 H         -4.0481235424       -1.1627182918       -1.5896839438
 H         -2.5775133054       -3.7275660581        1.4996140252
 H         -0.4593983774       -2.4794425605        1.5271203756
 H         -4.6420710642        2.5045430187        0.5325060648
 H         -5.2925420795        4.9006735951        0.5030781766
 H         -3.6310241439        6.6553293373        0.1550556242
 H         -1.2382070488        6.1164695614       -0.1783429291
 H          0.4911973759        3.7782884359       -0.3068121123
 H          4.5858391223        1.5506603188       -0.3175040056
 H          6.9621534023        1.0475745015       -0.2785176038
  49
  -89.2695452402000       0.196204796383331      !
 C          8.9133251385       -0.6993405032        0.6088411833
 O          7.9069499968       -1.5866343707        0.1767430764
 C          6.6391862451       -1.1345024260        0.0510170159
 C          5.6769612242       -2.0983511825       -0.2965180694
 C          4.3564206677       -1.7662199378       -0.4110588624
 C          3.9158556715       -0.4385148736       -0.1843036953
 C          2.5508984523       -0.0934949630       -0.2215057107
 C          1.4347133183       -0.9322629040       -0.3611326961
 C          0.2099737447       -0.3284262063       -0.2066751762
 C         -1.0398240581       -1.0565544253       -0.1471214618
 C         -2.0216509613       -0.7333599898        0.7969014371
 C         -3.1804553590       -1.4723226483        0.8823910103
 C         -3.3816279437       -2.5520454879        0.0267563581
 C         -4.6342168196       -3.3585331702        0.1670597896
 F         -5.7457634038       -2.5986400400        0.2195428982
 F         -4.6480556496       -4.0912967373        1.3056372524
 F         -4.8284898033       -4.2352911282       -0.8312812828
 C         -2.4134449483       -2.8922592298       -0.9119336757
 C         -1.2552366529       -2.1502346626       -0.9932093752
 C          0.3292649422        1.1011237410       -0.0327050247
 C         -0.6693219158        2.0536663888       -0.0539066964
 N         -1.9841977846        1.8132731302       -0.2241567568
 C         -2.5932731576        3.0057922775       -0.1684374079
 C         -3.9537980833        3.3238198688       -0.2746964522
 C         -4.3106767244        4.6490878409       -0.1809087931
 C         -3.3599879911        5.6589527630        0.0122722902
 C         -2.0070331257        5.3768975546        0.1201010384
 C         -1.6329422163        4.0508364346        0.0315539014
 N         -0.4285264451        3.4176998143        0.0934899087
 S          2.0208763701        1.5741553086        0.0495946867
 C          4.9039131811        0.5255185954        0.1157089881
 C          6.2296308725        0.1897497454        0.2380155024
 H          9.8157714375       -1.3012397829        0.6995027401
 H          9.0829675951        0.1004709871       -0.1183268994
 H          8.6687440749       -0.2629526007        1.5820690511
 H          6.0124495198       -3.1101711067       -0.4613750951
 H          3.6408346130       -2.5280691586       -0.6745059918
 H          1.5419241190       -1.9934876075       -0.4961879775
 H         -1.8560141308        0.0795628867        1.4826256517
 H         -3.9343112735       -1.2243852484        1.6139953294
 H         -2.5746829118       -3.7298053361       -1.5733512446
 H         -0.5128390467       -2.4031644363       -1.7349997918
 H         -4.6799019798        2.5411503014       -0.4207795673
 H         -5.3516932703        4.9262033942       -0.2560859872
 H         -3.6911546108        6.6843289873        0.0793634641
 H         -1.2793392028        6.1603606272        0.2683966903
 H          0.4767886148        3.8374283354        0.2181738695
 H          4.5965992826        1.5497971957        0.2679740665
 H          6.9453305521        0.9591327811        0.4820100913
  49
  -89.2689479718000       0.104285533692443      !
 C          8.6227902105       -2.2731041344       -0.3817975435
 O          8.0755000181       -1.0016115036       -0.1174659558
 C          6.7320314044       -0.8526425403       -0.0930069913
 C          6.2631873884        0.4439620635        0.1771258884
 C          4.9231812428        0.7066380859        0.2247043942
 C          3.9639916376       -0.3118702474        0.0049629045
 C          2.5848484136       -0.0311253813        0.0539742838
 C          1.4939939150       -0.8997424160       -0.1101880169
 C          0.2513356927       -0.3322399757        0.0343420682
 C         -0.9931259653       -1.0721348801        0.0011738282
 C         -1.1646815660       -2.1132861631       -0.9180722348
 C         -2.3382241147       -2.8329177871       -0.9594561379
 C         -3.3629742631       -2.5309945871       -0.0668097673
 C         -4.6465837989       -3.2971366436       -0.1404430409
 F         -5.3526689543       -3.2698434064        1.0025341315
 F         -4.4641963393       -4.5998091891       -0.4340983346
 F         -5.4798920556       -2.8269418341       -1.0965375235
 C         -3.2029115340       -1.5108819180        0.8649455297
 C         -2.0278329597       -0.7919789766        0.9005935167
 C          0.3295160651        1.0951702813        0.2469594656
 C         -0.6891264939        2.0251466654        0.1940793733
 N         -1.9893121273        1.7599388119       -0.0400560326
 C         -2.6223485387        2.9410746495       -0.0174906324
 C         -3.9797812797        3.2351807164       -0.2021199524
 C         -4.3633823509        4.5546735840       -0.1379949822
 C         -3.4425188883        5.5817771356        0.1030841777
 C         -2.0936478408        5.3235051671        0.2901485282
 C         -1.6929840135        4.0036505878        0.2305782246
 N         -0.4823840756        3.3928161684        0.3570915409
 S          2.0050315110        1.6092427964        0.3825377541
 C          4.4540350884       -1.6099421470       -0.2661103702
 C          5.8008628688       -1.8736528727       -0.3128140011
 H          8.3337120517       -2.6353058909       -1.3731672394
 H          9.7026215671       -2.1402698998       -0.3473200021
 H          8.3233089705       -3.0034097587        0.3760992209
 H          6.9913293634        1.2215699763        0.3453300886
 H          4.5763159980        1.7076270206        0.4337683803
 H          1.6321397565       -1.9528198965       -0.2787808841
 H         -0.3791198087       -2.3337140278       -1.6249021174
 H         -2.4707805950       -3.6263547253       -1.6794933532
 H         -3.9968991626       -1.2920628975        1.5621553043
 H         -1.8947816845       -0.0261866394        1.6454391474
 H         -4.6830113936        2.4399027830       -0.3869081941
 H         -5.4025219055        4.8136718440       -0.2762110649
 H         -3.7939089554        6.6017665517        0.1431160495
 H         -1.3883620770        6.1197889080        0.4739714597
 H          0.4076185282        3.8295407115        0.5257679197
 H          3.7587296570       -2.4154525712       -0.4406969964
 H          6.1282820273       -2.8800777598       -0.5224172895
  49
  -89.2688183552000       9.091936691605691E-002 !
 C          9.0042311948       -0.5241470333       -0.0713979262
 O          7.9759088426       -1.4795483571       -0.1958386248
 C          6.6876773203       -1.0745330258       -0.1322338350
 C          5.7208535190       -2.0868524089       -0.2618173792
 C          4.3861719282       -1.7975870683       -0.2153132671
 C          3.9342160335       -0.4672506469       -0.0300633514
 C          2.5636300714       -0.1471286121        0.0207925038
 C          1.4506344040       -0.9937878659       -0.0984083239
 C          0.2228408040       -0.3906516031        0.0310437125
 C         -1.0369138550       -1.1047037071        0.0250306545
 C         -1.2241237110       -2.1789835637       -0.8530448074
 C         -2.4118736923       -2.8745467115       -0.8737645997
 C         -3.4390217088       -2.5111772212       -0.0059121615
 C         -4.7221563549       -3.2793207170       -0.0617645011
 F         -5.6334670778       -2.8823813073        0.8390150301
 F         -4.5420203618       -4.6023711941        0.1515078665
 F         -5.3271641361       -3.1937741997       -1.2662792225
 C         -3.2622411785       -1.4623518087        0.8887235074
 C         -2.0704445480       -0.7695933434        0.9065269747
 C          0.3372864658        1.0412726019        0.1919577589
 C         -0.6582391355        1.9957308146        0.1331374140
 N         -1.9685666806        1.7601308292       -0.0743107457
 C         -2.5721993650        2.9565579289       -0.0559803951
 C         -3.9259711479        3.2808437708       -0.2149250986
 C         -4.2771883191        4.6096251002       -0.1564481294
 C         -3.3274025403        5.6168715115        0.0532854624
 C         -1.9809530140        5.3286411151        0.2127558638
 C         -1.6126216151        3.9991584431        0.1587564333
 N         -0.4146782828        3.3605658689        0.2680243651
 S          2.0267816126        1.5189434362        0.2855099175
 C          4.9207351893        0.5358351673        0.0996287704
 C          6.2616717999        0.2452395076        0.0485051249
 H          9.9349073980       -1.0837993520       -0.1446126003
 H          8.9619880447        0.2157647770       -0.8762113633
 H          8.9627705776       -0.0149197284        0.8959711749
 H          6.0666869256       -3.0996702197       -0.3980359749
 H          3.6685364344       -2.5957877477       -0.3157696867
 H          1.5622018035       -2.0554662534       -0.2267588338
 H         -0.4382001405       -2.4452379388       -1.5434185152
 H         -2.5577003013       -3.6943727018       -1.5611309281
 H         -4.0568570056       -1.1954741448        1.5680663472
 H         -1.9265708931        0.0215066112        1.6222226826
 H         -4.6514581617        2.5004334097       -0.3753561788
 H         -5.3128462314        4.8917003424       -0.2747740472
 H         -3.6540572772        6.6451175712        0.0919550618
 H         -1.2536050479        6.1099415745        0.3732554191
 H          0.4883897586        3.7771443457        0.4171294509
 H          4.6019028521        1.5586073373        0.2391322073
 H          6.9760006798        1.0474000778        0.1492708101
  49
  -89.2687255735000       8.241701592645409E-002 !
 C          8.6169887095       -2.3102651812        0.2130943798
 O          8.0711583682       -1.0229356309        0.0372955521
 C          6.7282170883       -0.8674939939        0.0444211719
 C          6.2615519380        0.4445408789       -0.1420871051
 C          4.9222786661        0.7144395116       -0.1556060658
 C          3.9614723073       -0.3117519784        0.0168592590
 C          2.5831727197       -0.0243958360       -0.0053672194
 C          1.4899487508       -0.8969774108        0.1190781073
 C          0.2491622423       -0.3205516366       -0.0025283822
 C         -0.9972753656       -1.0586080366       -0.0087921132
 C         -2.0210469779       -0.7430348219       -0.9088606231
 C         -3.1980110520       -1.4597437532       -0.9123815079
 C         -3.3738309198       -2.5070363965       -0.0142127646
 C         -4.6374757185       -3.3084527826       -0.0241255795
 F         -5.0167364178       -3.7125551407        1.2024143345
 F         -4.5213475610       -4.4437765137       -0.7554470779
 F         -5.6865575486       -2.6508965009       -0.5435022648
 C         -2.3565340576       -2.8497520014        0.8720924828
 C         -1.1806314394       -2.1323959899        0.8694743564
 C          0.3303091103        1.1143936665       -0.1525840484
 C         -0.6893802945        2.0417626192       -0.0787659316
 N         -1.9929629494        1.7678000018        0.1240156354
 C         -2.6276794838        2.9482532760        0.1274793240
 C         -3.9893228649        3.2343104181        0.2923821371
 C         -4.3746180475        4.5545725975        0.2598502175
 C         -3.4512260412        5.5900552946        0.0702492121
 C         -2.0980178948        5.3397854561       -0.0955475201
 C         -1.6957191504        4.0193124522       -0.0683065897
 N         -0.4816838021        3.4144572499       -0.1904835498
 S          2.0071303946        1.6315354284       -0.2532921278
 C          4.4494993801       -1.6248616846        0.2077574522
 C          5.7956172044       -1.8958348351        0.2197158231
 H          8.2980436230       -2.9923106010       -0.5809090598
 H          9.6966101401       -2.1800651177        0.1642606733
 H          8.3464193439       -2.7306102812        1.1865423973
 H          6.9908461753        1.2279405301       -0.2745635243
 H          4.5771598523        1.7271489373       -0.3010037134
 H          1.6250730255       -1.9569184041        0.2399952580
 H         -1.8770625781        0.0481120791       -1.6251575139
 H         -3.9852281137       -1.2113972635       -1.6073871210
 H         -2.5003701522       -3.6658991434        1.5637466907
 H         -0.4028105008       -2.3807176890        1.5755572565
 H         -4.6946859567        2.4324897386        0.4360872566
 H         -5.4172991941        4.8074817111        0.3821184987
 H         -3.8041692998        6.6102834599        0.0526841649
 H         -1.3909333591        6.1425117010       -0.2401189516
 H          0.4101685509        3.8571932543       -0.3312096753
 H          3.7530199820       -2.4366041064        0.3449104000
 H          6.1215922843       -2.9139931762        0.3663294051
  49
  -89.2685213697000       6.640049503336702E-002 !
 C          8.9641570970       -0.6627615943        0.3588770062
 O          7.9462767103       -1.5556565762       -0.0325057994
 C          6.6692748663       -1.1156901505       -0.0902412305
 C          5.7045981259       -2.0790111101       -0.4325642259
 C          4.3778118846       -1.7576281310       -0.4933510377
 C          3.9323344764       -0.4416842777       -0.2131617777
 C          2.5651209833       -0.1046457080       -0.2109685953
 C          1.4490054947       -0.9402458458       -0.3755083514
 C          0.2255101522       -0.3449459870       -0.1866813388
 C         -1.0292361939       -1.0674806515       -0.1533016676
 C         -1.2696429000       -2.1041449120       -1.0612700482
 C         -2.4403376388       -2.8292482998       -1.0134282628
 C         -3.3915211406       -2.5351924284       -0.0417411986
 C         -4.6753327940       -3.3021938361        0.0193541367
 F         -5.7008462598       -2.6546098990       -0.5786269572
 F         -5.0855952063       -3.5363881182        1.2810705373
 F         -4.6082503382       -4.5049461457       -0.5779313094
 C         -3.1656196822       -1.5117319066        0.8738934409
 C         -1.9950617446       -0.7880886296        0.8203968753
 C          0.3436224487        1.0758335195        0.0476210439
 C         -0.6605466026        2.0224061930        0.0737555547
 N         -1.9741121522        1.7798790395       -0.1039097139
 C         -2.5922599790        2.9634824407        0.0104886375
 C         -3.9555233818        3.2753198276       -0.0765278248
 C         -4.3226332359        4.5913662726        0.0840187523
 C         -3.3793511894        5.5980628891        0.3241592111
 C         -2.0237166963        5.3221785717        0.4127919395
 C         -1.6393889265        4.0052594989        0.2573844550
 N         -0.4295824824        3.3796481133        0.2840930859
 S          2.0340538403        1.5488511048        0.1371292616
 C          4.9203073443        0.5206691618        0.0934464361
 C          6.2526459405        0.1959305353        0.1594087819
 H          9.8800807611       -1.2507965474        0.3737514004
 H          9.0730858392        0.1594384040       -0.3550835155
 H          8.7772468233       -0.2572979524        1.3580710906
 H          6.0440353075       -3.0817802218       -0.6393954830
 H          3.6608727945       -2.5193882170       -0.7537808885
 H          1.5562762054       -1.9941273181       -0.5596103438
 H         -0.5382980416       -2.3229786550       -1.8246749533
 H         -2.6234358321       -3.6215778046       -1.7233252972
 H         -3.9048062615       -1.2991668813        1.6309184287
 H         -1.8080761707       -0.0223524751        1.5535907150
 H         -4.6757208568        2.4951451838       -0.2606322580
 H         -5.3659529902        4.8635802175        0.0242471498
 H         -3.7184105547        6.6161492415        0.4428779450
 H         -1.3017217601        6.1032389616        0.5974262556
 H          0.4726625641        3.7998477669        0.4281814273
 H          4.6081741648        1.5351427944        0.2936854008
 H          6.9681905775        0.9645565769        0.4061374897
  49
  -89.2683971297000       5.822031708808598E-002 !
 C          8.9909288726       -0.3707261148        0.3563448556
 O          7.9936422385       -1.3667741949        0.3572977165
 C          6.7048181953       -1.0076613553        0.1623371742
 C          5.7610458083       -2.0474109129        0.2258568208
 C          4.4255570839       -1.7985771000        0.0748492730
 C          3.9505564976       -0.4832908146       -0.1533139977
 C          2.5767190667       -0.1908292019       -0.2530259633
 C          1.4714878451       -1.0502655550       -0.1463562167
 C          0.2384714867       -0.4514077883       -0.2375529661
 C         -1.0273086881       -1.1533986666       -0.2038340788
 C         -2.0908592455       -0.7740849152       -1.0307819223
 C         -3.2982755316       -1.4351955762       -0.9689022708
 C         -3.4628546560       -2.4957246183       -0.0840065369
 C         -4.7862983751       -3.1853326956        0.0304238194
 F         -5.5322557892       -3.0993428752       -1.0845041326
 F         -5.5528174989       -2.6762785648        1.0221947969
 F         -4.6744254273       -4.4997799952        0.3030323306
 C         -2.4076982866       -2.9023118173        0.7278073663
 C         -1.2017820491       -2.2404396012        0.6599432891
 C          0.3430107535        0.9864212362       -0.3519756842
 C         -0.6469252843        1.9310452994       -0.1694323082
 N         -1.9414362394        1.6770253988        0.1028991847
 C         -2.5364740921        2.8704807190        0.2390448768
 C         -3.8706315279        3.1790839744        0.5350374510
 C         -4.2115131970        4.5075012874        0.6430669695
 C         -3.2709786209        5.5295069249        0.4637093996
 C         -1.9449743927        5.2569270722        0.1663648873
 C         -1.5871929048        3.9281682419        0.0540295248
 N         -0.4059117937        3.3022996509       -0.2053000271
 S          2.0246246749        1.4748523268       -0.4938569208
 C          4.9173103500        0.5429138762       -0.2467180750
 C          6.2578835167        0.2933234453       -0.0896173799
 H          9.0652002038        0.1214364859       -0.6182002774
 H          8.8068968327        0.3795165462        1.1315170303
 H          9.9238771111       -0.8890105229        0.5703592632
 H          6.1234609119       -3.0473061437        0.4058499415
 H          3.7248605213       -2.6156242595        0.1350745022
 H          1.5936525545       -2.1139522511       -0.0460888825
 H         -1.9577448627        0.0266478846       -1.7381676170
 H         -4.1165784686       -1.1368988967       -1.6059797116
 H         -2.5424061557       -3.7287990767        1.4092460264
 H         -0.3921798254       -2.5406636992        1.3077701904
 H         -4.5885225495        2.3874878988        0.6735181363
 H         -5.2313869929        4.7777866340        0.8731584742
 H         -3.5885006414        6.5567980204        0.5604641118
 H         -1.2240353024        6.0489112175        0.0307934413
 H          0.4893726494        3.7287553191       -0.3727036830
 H          4.5823996260        1.5521921159       -0.4363602238
 H          6.9554679207        1.1129828636       -0.1611751984
  49
  -89.2682703988000       5.091351454661908E-002 !
 C          8.9773554330       -0.3737242309        0.4554740631
 O          7.9853888281       -1.3727901327        0.3879369926
 C          6.7004840101       -1.0108645946        0.1730755973
 C          5.7584697380       -2.0540644014        0.1852262989
 C          4.4255628181       -1.8030592770        0.0162848736
 C          3.9518235691       -0.4823110211       -0.1811588006
 C          2.5786917906       -0.1891529190       -0.2884821509
 C          1.4741167422       -1.0499790051       -0.1875910982
 C          0.2406137385       -0.4504491283       -0.2663806946
 C         -1.0247322330       -1.1527167111       -0.2252964803
 C         -2.0988911933       -0.7661035995       -1.0350062962
 C         -3.3067552402       -1.4252509071       -0.9604877822
 C         -3.4607740886       -2.4919104255       -0.0812239517
 C         -4.7839131887       -3.1790428907        0.0498834756
 F         -5.5533167381       -3.0729978115       -1.0470566133
 F         -5.5270309170       -2.6835887772        1.0661140110
 F         -4.6707232038       -4.4981161026        0.2992417889
 C         -2.3944963505       -2.9073539130        0.7114661840
 C         -1.1887019949       -2.2467722154        0.6317669484
 C          0.3445140792        0.9881211845       -0.3716194753
 C         -0.6458626150        1.9307982337       -0.1812938244
 N         -1.9351857148        1.6732471608        0.1118127878
 C         -2.5332333523        2.8649726018        0.2494572393
 C         -3.8636496667        3.1697727960        0.5655071225
 C         -4.2090877661        4.4974555238        0.6680237986
 C         -3.2769252330        5.5222355407        0.4632193883
 C         -1.9543944956        5.2533399554        0.1475714112
 C         -1.5916777673        3.9253265672        0.0422923026
 N         -0.4111814987        3.3026805302       -0.2288795703
 S          2.0255575032        1.4780897079       -0.5160057173
 C          4.9180474541        0.5473827818       -0.2302169428
 C          6.2557774465        0.2958083288       -0.0522350248
 H          9.0812867377        0.1538742888       -0.4975515210
 H          8.7640906564        0.3470702684        1.2509136326
 H          9.9053090737       -0.8961206761        0.6811251959
 H          6.1198735430       -3.0584791934        0.3406785353
 H          3.7260296570       -2.6230495736        0.0363481409
 H          1.5968822102       -2.1143155293       -0.0955556638
 H         -1.9739747325        0.0382887167       -1.7397617594
 H         -4.1333710295       -1.1208604115       -1.5838109816
 H         -2.5208255192       -3.7391697028        1.3879501630
 H         -0.3704981083       -2.5536060096        1.2654653611
 H         -4.5753199847        2.3760494107        0.7225605332
 H         -5.2261579067        4.7648875973        0.9133282813
 H         -3.5979566648        6.5487860648        0.5560195566
 H         -1.2396724622        6.0475469239       -0.0064515407
 H          0.4790167178        3.7331283877       -0.4124648540
 H          4.5847256850        1.5605599538       -0.4005579339
 H          6.9530380397        1.1181227110       -0.0876221757
  49
  -89.2679036389000       3.453678423634629E-002 !
 C          8.9198950957       -0.2879951365        0.5944694618
 O          7.9485715930       -1.3057537835        0.5063856243
 C          6.6700966720       -0.9707268372        0.2219336625
 C          5.7380846747       -2.0225830377        0.2479173129
 C          4.4087686604       -1.7928619162        0.0271959246
 C          3.9299991904       -0.4864679224       -0.2391437672
 C          2.5562917759       -0.2048722718       -0.3720296850
 C          1.4537262094       -1.0633060822       -0.2419540842
 C          0.2176689059       -0.4656991902       -0.3128613206
 C         -1.0436455506       -1.1708069410       -0.2435074949
 C         -2.1454918830       -0.7738088092       -1.0109303249
 C         -3.3438598260       -1.4467083224       -0.9182394745
 C         -3.4636606444       -2.5384380070       -0.0633243006
 C         -4.7831565191       -3.2331290500        0.0641513593
 F         -5.4448505676       -3.3260258897       -1.1052869852
 F         -5.6274818895       -2.5951108074        0.9065048190
 F         -4.6829365146       -4.4888516728        0.5347446666
 C         -2.3728830719       -2.9605950567        0.6903509138
 C         -1.1764431104       -2.2852716796        0.5934615248
 C          0.3219890552        0.9714198630       -0.4437526436
 C         -0.6483631476        1.9284406061       -0.2234563211
 N         -1.9274259326        1.6982373370        0.1293684843
 C         -2.4931483552        2.9030117562        0.2918967556
 C         -3.7983496518        3.2379875821        0.6755473586
 C         -4.1084855210        4.5731359336        0.7931116961
 C         -3.1665788635        5.5774003217        0.5369945460
 C         -1.8688756093        5.2790286255        0.1532606594
 C         -1.5413781025        3.9430648608        0.0340297152
 N         -0.3895038124        3.2953342024       -0.2929505327
 S          2.0003398245        1.4541173773       -0.6431500278
 C          4.8894907938        0.5475524738       -0.3167229757
 C          6.2229445250        0.3180877754       -0.0858164365
 H          9.0808839737        0.1988649461       -0.3722306441
 H          8.6429927794        0.4634739254        1.3403233271
 H          9.8377034947       -0.7838579201        0.9052432399
 H          6.1030609279       -3.0150773552        0.4607114956
 H          3.7156196729       -2.6177039286        0.0640388259
 H          1.5799552047       -2.1254939770       -0.1320047682
 H         -2.0496949963        0.0509451743       -1.6961411965
 H         -4.1915720361       -1.1362550718       -1.5096716415
 H         -2.4704609731       -3.8096593027        1.3497149592
 H         -0.3400014920       -2.5988929701        1.1992839195
 H         -4.5183163121        2.4607943107        0.8723560864
 H         -5.1048197278        4.8631946420        1.0918671684
 H         -3.4598495859        6.6108804212        0.6437688760
 H         -1.1452899976        6.0565658189       -0.0397318826
 H          0.5004947932        3.7064143576       -0.5174264248
 H          4.5534819957        1.5477931615       -0.5475331967
 H          6.9145990408        1.1438916713       -0.1428987279
