  51
  -72.1306871060000       0.495855713681819      !
 C          4.7908448368       -0.5126028035        1.4563457624
 C          3.5455322172        0.2953734826        1.2444239336
 C          3.5276828741        1.6523659744        1.5451823424
 C          2.3782041893        2.3962683192        1.3776098872
 C          1.2205874464        1.7988051098        0.8876396401
 C          1.2303708569        0.4442466196        0.5463236336
 C          2.3915929485       -0.2876193697        0.7397411218
 C         -0.0029188225       -0.1390220466       -0.1224382337
 C          0.0588441627        0.2224133652       -1.6084020085
 C          1.2772808252        0.2355123669       -2.2779583747
 C          1.3435606412        0.5528427837       -3.6225273311
 C          0.1912787588        0.8603523399       -4.3247153868
 C         -1.0273483695        0.8399227439       -3.6699378228
 C         -1.0935168198        0.5229168885       -2.3243055588
 C         -0.0632568742       -1.6419543392        0.0792565851
 C         -0.0243385968       -2.1362450689        1.3805782823
 C         -0.0948297185       -3.4943109300        1.6229141007
 C         -0.2126939706       -4.3830865343        0.5662578778
 C         -0.2586146323       -3.9003530300       -0.7288761234
 C         -0.1838065054       -2.5383029869       -0.9724689757
 C         -1.2314754137        0.5091095301        0.4932008928
 C         -2.4308341450       -0.1634430722        0.6508439381
 C         -3.5702948063        0.4757243334        1.1269356428
 C         -4.8434187207       -0.2960320825        1.3052408179
 C         -3.4957351970        1.8281091854        1.4280389311
 C         -2.3048695726        2.5154682857        1.2946524164
 C         -1.1641425668        1.8618266902        0.8424650358
 N          0.0485232424        2.5224947774        0.7536877920
 H          5.0409941022       -0.5506713432        2.5165433367
 H          4.6586122235       -1.5302830195        1.0975858962
 H          5.6339067015       -0.0637565517        0.9324957050
 H          4.4211915756        2.1269535285        1.9244346381
 H          2.3664787298        3.4480146796        1.6282172599
 H          2.4007574446       -1.3376083469        0.4826195034
 H          2.1855670771       -0.0045143351       -1.7460200924
 H          2.3013645494        0.5599347191       -4.1226575788
 H          0.2431227490        1.1128067920       -5.3737570283
 H         -1.9347546798        1.0742122109       -4.2079027901
 H         -2.0533101553        0.5118402270       -1.8296930093
 H          0.0619151069       -1.4435561318        2.2058559142
 H         -0.0599345141       -3.8617015479        2.6383739630
 H         -0.2688864639       -5.4454944914        0.7534860526
 H         -0.3542535744       -4.5857739643       -1.5587282572
 H         -0.2253794569       -2.1760834511       -1.9890445119
 H         -2.4901776670       -1.2097557799        0.3866115059
 H         -5.1016278196       -0.8306595742        0.3922800222
 H         -4.7269146814       -1.0339462145        2.0992128111
 H         -5.6656057410        0.3650494002        1.5677602559
 H         -4.3733558607        2.3494448872        1.7821908944
 H         -2.2497244144        3.5651820270        1.5479408436
 H          0.0676130059        3.4792689856        1.0771747078
  51
  -72.1296702113000       0.169052997205790      !
 C          4.8957708116        1.0848618419       -0.1163128761
 C          3.5640183384        1.0588432015        0.5722042447
 C          3.4363005559        1.4683988320        1.8930336349
 C          2.2079147130        1.4438483744        2.5212433963
 C          1.0819254950        0.9808441639        1.8471910415
 C          1.1997288763        0.5238795065        0.5319351729
 C          2.4366051056        0.5892152068       -0.0889328693
 C         -0.0080065771       -0.1188637050       -0.1320989150
 C          0.0639018756        0.0408795348       -1.6400493788
 C         -0.0737911523       -1.0226156306       -2.5200908504
 C         -0.0310215869       -0.8112585778       -3.8888226567
 C          0.1452089963        0.4637578785       -4.3947399061
 C          0.2725705652        1.5330033365       -3.5227143460
 C          0.2285071587        1.3226699794       -2.1581715548
 C          0.0007960291       -1.5898160462        0.2892170820
 C          1.1616461327       -2.3413771919        0.1349174230
 C          1.2050425756       -3.6681868465        0.5193592086
 C          0.0871441538       -4.2710737914        1.0708918213
 C         -1.0726868522       -3.5342980224        1.2249659940
 C         -1.1167552012       -2.2057811439        0.8361818698
 C         -1.2715012436        0.5545177282        0.3735936547
 C         -2.4178660526        0.6364980404       -0.3998155467
 C         -3.5989724542        1.1719385519        0.0976744215
 C         -4.8306705954        1.2239095706       -0.7556633209
 C         -3.6213213852        1.6233752549        1.4110159101
 C         -2.4875811769        1.5636667570        2.1961798822
 C         -1.3052327997        1.0365770799        1.6853947691
 N         -0.1591364675        0.9914993338        2.4565749548
 H          5.5050134797        1.9082315812        0.2499657554
 H          5.4363213114        0.1566821515        0.0749147324
 H          4.7732134830        1.1878322870       -1.1921186027
 H          4.3032919206        1.8249278720        2.4301852492
 H          2.1096557389        1.7869284161        3.5420044376
 H          2.5296836687        0.2681348664       -1.1172198807
 H         -0.2202902560       -2.0228641364       -2.1399916333
 H         -0.1391344931       -1.6501120698       -4.5612480975
 H          0.1789181398        0.6260135760       -5.4621512832
 H          0.4037780549        2.5337746764       -3.9083363413
 H          0.3233137436        2.1584474181       -1.4793781728
 H          2.0424105510       -1.8848777727       -0.2902751576
 H          2.1169574783       -4.2330107344        0.3896349398
 H          0.1211732518       -5.3065225735        1.3765558656
 H         -1.9532943934       -3.9931256640        1.6511379834
 H         -2.0345576828       -1.6513098322        0.9608573425
 H         -2.3969857243        0.2614513182       -1.4130055263
 H         -5.4159412488        0.3119814227       -0.6291617938
 H         -5.4590369073        2.0670668776       -0.4772881103
 H         -4.5676433992        1.3111569621       -1.8073592744
 H         -4.5329618937        2.0329684626        1.8216436481
 H         -2.5087177116        1.9290703080        3.2135767334
 H         -0.2111183180        1.4057237560        3.3762000857
  51
  -72.1293480413000       0.120216420985536      !
 C          4.9580688415        0.7577454121       -0.4774885658
 C          3.6821275080        0.8680755870        0.3019202111
 C          3.6574313708        1.4240609726        1.5729057912
 C          2.4703337088        1.5306381185        2.2703497646
 C          1.2810053095        1.0706579498        1.7132862010
 C          1.2893330125        0.4919240007        0.4395201387
 C          2.4898958512        0.4078595876       -0.2449052011
 C          0.0114222430       -0.1049242795       -0.1264591981
 C          0.0397015275        0.0648901374       -1.6354946795
 C         -0.2010336004        1.3246873255       -2.1741069572
 C         -0.1471406596        1.5320867887       -3.5396199606
 C          0.1653082526        0.4849249980       -4.3903651170
 C          0.4331909079       -0.7652355491       -3.8620230557
 C          0.3740288568       -0.9738594577       -2.4943250328
 C         -0.1150671101       -1.5722619765        0.2870397825
 C         -1.1789290187       -2.3301292402       -0.1932990119
 C         -1.3423491910       -3.6480646178        0.1879619399
 C         -0.4464419015       -4.2356899215        1.0652859514
 C          0.6121126077       -3.4909544235        1.5512419100
 C          0.7769504274       -2.1706343205        1.1662747753
 C         -1.2026691977        0.5884224980        0.4754140459
 C         -2.4230248671        0.6222421625       -0.1815792547
 C         -3.5629298090        1.1480276475        0.4098421236
 C         -4.8759955293        1.1418384294       -0.3139702872
 C         -3.4675054977        1.6549336718        1.6998353848
 C         -2.2581076966        1.6615639149        2.3623882320
 C         -1.1190867483        1.1350963612        1.7583130587
 N          0.0958810280        1.1720780860        2.4129652629
 H          4.9548185233        1.4643161687       -1.3078112220
 H          5.8181547273        0.9723632845        0.1520690190
 H          5.0682806301       -0.2423152849       -0.8934761497
 H          4.5726785310        1.7808743542        2.0229599529
 H          2.4559276909        1.9696917769        3.2584453042
 H          2.5072741822       -0.0442162250       -1.2259078786
 H         -0.4380139552        2.1471249676       -1.5142536582
 H         -0.3470562807        2.5149906684       -3.9412249612
 H          0.2070629574        0.6449865756       -5.4578195598
 H          0.6944991066       -1.5847645356       -4.5160118136
 H          0.5973952116       -1.9524686671       -2.0950074682
 H         -1.8854053273       -1.8884546759       -0.8787481840
 H         -2.1736487875       -4.2183540800       -0.2009549833
 H         -0.5742454733       -5.2650793536        1.3666014847
 H          1.3184482276       -3.9371941642        2.2364849833
 H          1.6138432927       -1.6107965521        1.5555650929
 H         -2.4917812790        0.2379229947       -1.1891122249
 H         -5.4964344442        0.3178401591        0.0408075127
 H         -5.4192365587        2.0681383026       -0.1370213822
 H         -4.7285774087        1.0196106074       -1.3843624726
 H         -4.3444494407        2.0612147516        2.1827461989
 H         -2.1827813300        2.0783677944        3.3573245868
 H          0.1249592746        1.6475874361        3.3029836269
  51
  -72.1292541150000       0.108842436580542      !
 C          4.8725804214        1.2223650957       -0.1924837288
 C          3.5585588218        1.1586302899        0.5272187998
 C          3.4363386448        1.5758336918        1.8453379537
 C          2.2196198311        1.5101760453        2.4953621267
 C          1.0995460707        1.0065900393        1.8420125583
 C          1.2114910542        0.5510364930        0.5247642792
 C          2.4369628902        0.6450604305       -0.1134936175
 C          0.0119598107       -0.1189932514       -0.1222329169
 C          0.0964719655        0.0284259443       -1.6314311723
 C          0.1818358830       -1.0543877541       -2.4940572320
 C          0.2603119571       -0.8565087146       -3.8633726933
 C          0.2560746863        0.4235580563       -4.3865807837
 C          0.1745368257        1.5110450538       -3.5313503413
 C          0.0962733265        1.3140323586       -2.1664476521
 C         -0.0176069467       -1.5921432491        0.2943760345
 C          1.1455965083       -2.2623328158        0.6529494280
 C          1.1110532778       -3.5980530374        1.0136504050
 C         -0.0867012458       -4.2901689361        1.0199808838
 C         -1.2498954346       -3.6339645379        0.6572248002
 C         -1.2152373737       -2.2987375387        0.2978832200
 C         -1.2552273525        0.5420047861        0.3939334449
 C         -2.4066092921        0.6328542724       -0.3730219452
 C         -3.5928225822        1.1332235283        0.1459658996
 C         -4.8327102796        1.2023692694       -0.6944635809
 C         -3.6161417353        1.5424743044        1.4738703676
 C         -2.4765149782        1.4836515364        2.2490017829
 C         -1.2879664378        0.9926598590        1.7157935575
 N         -0.1305709720        0.9667761183        2.4720510369
 H          5.5811796934        1.8459304632        0.3473076004
 H          5.3003977475        0.2237275848       -0.2890299490
 H          4.7412923091        1.6256660029       -1.1950969546
 H          4.2980648511        1.9660928043        2.3674844259
 H          2.1274082769        1.8527670685        3.5167351239
 H          2.5295148625        0.2961530564       -1.1324836883
 H          0.1877292950       -2.0601363307       -2.1005990587
 H          0.3253020821       -1.7105663783       -4.5224672339
 H          0.3169142968        0.5753268150       -5.4544506089
 H          0.1733646645        2.5150119051       -3.9304790429
 H          0.0354567848        2.1628407913       -1.5000156290
 H          2.0911060713       -1.7414230403        0.6514246810
 H          2.0276243936       -4.0989518088        1.2904603083
 H         -0.1135863121       -5.3322444000        1.3031584930
 H         -2.1917177192       -4.1635142015        0.6525566604
 H         -2.1322522072       -1.8040918818        0.0155117289
 H         -2.3817140205        0.2978987331       -1.4008954133
 H         -5.5277821626        0.4115030924       -0.4102210748
 H         -5.3391519682        2.1557318169       -0.5541549796
 H         -4.5932063562        1.0838851617       -1.7483800076
 H         -4.5336224594        1.9220996023        1.9000338861
 H         -2.4963415473        1.8217054364        3.2760724726
 H         -0.1818052171        1.3683860735        3.3973753753
  51
  -72.1280072871000       2.909349031064504E-002 !
 C          5.0121089690        0.2379796560       -0.2642030232
 C          3.7160451173        0.6392347845        0.3736773267
 C          3.6840365735        1.4771679924        1.4794214811
 C          2.4818352997        1.8161144493        2.0658790561
 C          1.2812486827        1.3220954189        1.5606891272
 C          1.2929814702        0.4800727899        0.4444118457
 C          2.5132640567        0.1551801983       -0.1247758031
 C          0.0044104794       -0.1086271798       -0.1153001410
 C          0.0486368026        0.1100942063       -1.6197556151
 C         -0.3423964927        1.3411607735       -2.1343054012
 C         -0.2589364263        1.6025876570       -3.4894125831
 C          0.2302463301        0.6397253433       -4.3553180728
 C          0.6430764340       -0.5808061385       -3.8513551290
 C          0.5577571081       -0.8423524300       -2.4946802299
 C         -0.1185620016       -1.5759603065        0.2870894479
 C         -0.9263553230       -2.4553116033       -0.4263553545
 C         -1.0843710189       -3.7660312570       -0.0148532179
 C         -0.4455513136       -4.2226302970        1.1248333524
 C          0.3492392201       -3.3532046151        1.8498324324
 C          0.5081027682       -2.0422009265        1.4363683150
 C         -1.2258765992        0.5653270837        0.4784912870
 C         -2.4766594509        0.3460551528       -0.0751649946
 C         -3.6345041565        0.8824688408        0.4727181623
 C         -4.9630664716        0.6159063064       -0.1690394720
 C         -3.5242950515        1.6662720408        1.6125815344
 C         -2.2882090092        1.9168568652        2.1721359808
 C         -1.1329866673        1.3745961493        1.6137679782
 N          0.0936985150        1.6497087212        2.1745520654
 H          4.9384634462        0.2904670581       -1.3488709698
 H          5.8228480286        0.8833807673        0.0651059213
 H          5.2621162188       -0.7889791899        0.0043627340
 H          4.6050424486        1.8681785255        1.8871610945
 H          2.4605852792        2.4681392531        2.9282832741
 H          2.5351580978       -0.4995899518       -0.9828540148
 H         -0.7185526748        2.1020957088       -1.4655309083
 H         -0.5722880290        2.5641048670       -3.8696882376
 H          0.2972346203        0.8424374843       -5.4141492376
 H          1.0384876772       -1.3353031396       -4.5164234660
 H          0.8863350486       -1.8011918649       -2.1197305406
 H         -1.4312565495       -2.1232719729       -1.3209574042
 H         -1.7115724784       -4.4335982173       -0.5882679122
 H         -0.5702658700       -5.2461502032        1.4465764464
 H          0.8474900594       -3.6940710411        2.7459545479
 H          1.1306715495       -1.3775816304        2.0167789026
 H         -2.5591131940       -0.2548604884       -0.9680737423
 H         -5.1008497844       -0.4519792250       -0.3316499072
 H         -5.7752491390        0.9820859831        0.4539824412
 H         -5.0213612863        1.1108791942       -1.1387209628
 H         -4.4093923507        2.0927287769        2.0620795142
 H         -2.2041560359        2.5399504791        3.0518974877
 H          0.1246386606        2.2884456275        2.9544306284
  51
  -72.1279873904000       2.848734242474707E-002 !
 C          4.9305918135        0.8616349722       -0.5085425581
 C          3.6613666385        0.9188061077        0.2874834071
 C          3.6446135732        1.3970853275        1.5898919357
 C          2.4663136599        1.4402521738        2.3093461504
 C          1.2781448237        0.9904638569        1.7423769221
 C          1.2814387281        0.4818277783        0.4394088567
 C          2.4715462626        0.4619037170       -0.2674125608
 C          0.0060807464       -0.1162145631       -0.1271458314
 C          0.0236497073        0.0478725726       -1.6366488623
 C         -0.0712870477        1.3346037105       -2.1593699182
 C         -0.0285804956        1.5484027429       -3.5234881790
 C          0.1186187082        0.4774649095       -4.3900226308
 C          0.2291824321       -0.8028077481       -3.8787567478
 C          0.1851919642       -1.0173022140       -2.5107651528
 C         -0.1114442069       -1.5832619448        0.2912837351
 C         -1.2732937118       -2.2895330090       -0.0049822069
 C         -1.4163535255       -3.6118886073        0.3701431100
 C         -0.4004464267       -4.2553469241        1.0564893684
 C          0.7575672129       -3.5624907382        1.3572454936
 C          0.9021360733       -2.2386375356        0.9770575855
 C         -1.1972688971        0.5943548022        0.4735945844
 C         -2.4010901272        0.7025931209       -0.2022273423
 C         -3.5348437831        1.2367921316        0.3983266133
 C         -4.8179230540        1.3380406976       -0.3709901908
 C         -3.4455265430        1.6735867629        1.7124094362
 C         -2.2472065145        1.6079892773        2.3950488041
 C         -1.1162644332        1.0768640233        1.7833295054
 N          0.0933403234        1.0423362654        2.4506774545
 H          4.7821065123        1.2968807844       -1.4954366199
 H          5.7300386781        1.3991217743       -0.0046681083
 H          5.2453049624       -0.1731076852       -0.6460915051
 H          4.5596378960        1.7455496411        2.0468535294
 H          2.4585281830        1.8240945132        3.3200798685
 H          2.4810811867        0.0670154787       -1.2730880292
 H         -0.1817888523        2.1719557316       -1.4845986082
 H         -0.1081595598        2.5531815464       -3.9126753741
 H          0.1524441584        0.6422618062       -5.4570459441
 H          0.3544923640       -1.6431032747       -4.5464049025
 H          0.2834820679       -2.0217367040       -2.1263731412
 H         -2.0753435303       -1.8011307339       -0.5367849404
 H         -2.3256816524       -4.1420584954        0.1260187313
 H         -0.5121446012       -5.2878280958        1.3535694725
 H          1.5584748582       -4.0525160648        1.8918851190
 H          1.8173955568       -1.7201254219        1.2189554746
 H         -2.4659062019        0.3658989861       -1.2275730431
 H         -5.6578144584        1.5151817365        0.2964339668
 H         -4.7668764894        2.1626268701       -1.0829631511
 H         -5.0035690094        0.4247774803       -0.9334884563
 H         -4.3166025903        2.0822083674        2.2039534096
 H         -2.1778632061        1.9707152024        3.4113767686
 H          0.1238950793        1.4708383322        3.3645098055
  51
  -72.1276642228000       2.023645287639501E-002 !
 C          4.9911785427       -0.0731795319        0.4013992184
 C          3.6626921160        0.5363790193        0.7346664709
 C          3.5676989995        1.6812876243        1.5135991093
 C          2.3353223247        2.2285931223        1.8047707433
 C          1.1670924380        1.6521888626        1.3104295103
 C          1.2435465338        0.5098357645        0.5094395018
 C          2.4923577464       -0.0297077256        0.2470189189
 C         -0.0020211188       -0.1212135714       -0.0998969129
 C          0.0943298502        0.1701016936       -1.5943236655
 C          0.8364183937       -0.6367466047       -2.4500954996
 C          0.9644142003       -0.3193770229       -3.7903043258
 C          0.3621841816        0.8172622688       -4.3003651833
 C         -0.3638231392        1.6366177785       -3.4546501698
 C         -0.4926893719        1.3174225519       -2.1146973056
 C         -0.0543190227       -1.6043729826        0.2368515332
 C          0.3746164736       -2.0271700920        1.4899355217
 C          0.2837530442       -3.3563143704        1.8604084559
 C         -0.2483300542       -4.2879857164        0.9862785555
 C         -0.6962167987       -3.8753814246       -0.2559427402
 C         -0.6058678353       -2.5446146539       -0.6257950925
 C         -1.2799063790        0.4866720039        0.4645522950
 C         -2.5102486013       -0.0554240408        0.1316207013
 C         -3.7060988475        0.4782714880        0.5947398971
 C         -5.0108067314       -0.1503533347        0.2074797467
 C         -3.6562694637        1.5911125373        1.4222929364
 C         -2.4438194756        2.1515693524        1.7683660862
 C         -1.2501916754        1.6118109203        1.2939290145
 N         -0.0533555954        2.2026703122        1.6270730119
 H          5.7733377184        0.3246651982        1.0433423851
 H          4.9580239865       -1.1551028997        0.5165750982
 H          5.2551599891        0.1442361535       -0.6341153896
 H          4.4625115532        2.1449233850        1.9029815130
 H          2.2637597743        3.1126588793        2.4235649253
 H          2.5622312381       -0.9255675060       -0.3510610520
 H          1.3141614176       -1.5301267967       -2.0766462482
 H          1.5389602048       -0.9651544939       -4.4389172427
 H          0.4617699656        1.0638504772       -5.3472853155
 H         -0.8322145922        2.5319043064       -3.8376862989
 H         -1.0611349784        1.9698042221       -1.4681173665
 H          0.7865366557       -1.3072692780        2.1826697231
 H          0.6276853286       -3.6645694653        2.8371901617
 H         -0.3179258989       -5.3273433445        1.2727488732
 H         -1.1226264786       -4.5922871442       -0.9430905785
 H         -0.9637737018       -2.2433078926       -1.6000965853
 H         -2.5458948984       -0.9176194640       -0.5167802502
 H         -5.0424209404       -0.3388346114       -0.8643750720
 H         -5.1350633192       -1.1061520441        0.7173394217
 H         -5.8462693183        0.4920007676        0.4751449228
 H         -4.5711228413        2.0260815132        1.7980263962
 H         -2.4086767562        3.0220594552        2.4091153899
 H         -0.0709082596        2.9990353407        2.2452958676
  51
  -72.1275007746000       1.702232186821089E-002 !
 C          4.9875807498       -0.3860138600        0.2731460354
 C          3.7051765511        0.2670829353        0.6931997759
 C          3.6872674538        1.3121536787        1.6056251737
 C          2.4948144162        1.9068935494        1.9639802052
 C          1.2893671829        1.4669105645        1.4212849477
 C          1.2859494730        0.4061957076        0.5108212951
 C          2.4974122992       -0.1674903811        0.1624480668
 C         -0.0058102566       -0.1163158058       -0.1057702744
 C         -0.0159871071        0.1653543636       -1.6038875606
 C          0.6243863676        1.2989141947       -2.0909544344
 C          0.5781553233        1.6188189468       -3.4357976603
 C         -0.1178621094        0.8141426877       -4.3202610665
 C         -0.7733936533       -0.3075588555       -3.8442798548
 C         -0.7275511032       -0.6260301447       -2.4987167353
 C         -0.0621293797       -1.5962780909        0.2483424609
 C         -0.6004427739       -1.9789393076        1.4717855196
 C         -0.6055481682       -3.3054998056        1.8620896477
 C         -0.0626287941       -4.2759235392        1.0381896816
 C          0.4915855384       -3.9047471367       -0.1738548272
 C          0.4968883161       -2.5767202957       -0.5633003956
 C         -1.2322911498        0.5984088210        0.4477373041
 C         -2.4991438501        0.1927787815        0.0612857706
 C         -3.6506660395        0.8291132864        0.5058049790
 C         -4.9974351261        0.3438290888        0.0606011981
 C         -3.5173862941        1.9073866865        1.3689845401
 C         -2.2679649758        2.3225223888        1.7813985396
 C         -1.1191690912        1.6754032455        1.3310346728
 N          0.1154822731        2.0920759019        1.7707810079
 H          4.9465581050       -1.4589243395        0.4567903765
 H          5.1576408164       -0.2375378588       -0.7930810300
 H          5.8316766233        0.0285751898        0.8185616263
 H          4.6113222171        1.6681729540        2.0377387048
 H          2.4849001855        2.7260252008        2.6698798689
 H          2.5089113906       -0.9779416437       -0.5501974529
 H          1.1687117211        1.9390279186       -1.4120455891
 H          1.0871855304        2.5023552172       -3.7931120712
 H         -0.1528048001        1.0607918641       -5.3712468505
 H         -1.3257631720       -0.9407783776       -4.5237587580
 H         -1.2452823939       -1.5082931102       -2.1522306761
 H         -1.0218485079       -1.2296088203        2.1263787508
 H         -1.0324646043       -3.5813239445        2.8155223676
 H         -0.0659068394       -5.3127835180        1.3408469460
 H          0.9254380341       -4.6524107775       -0.8224063967
 H          0.9337463752       -2.3105784477       -1.5149017495
 H         -2.5998092367       -0.6504517476       -0.6046320774
 H         -5.0300496535        0.2489723901       -1.0236997975
 H         -5.2065471512       -0.6374869299        0.4871186447
 H         -5.7807362449        1.0290863015        0.3750002807
 H         -4.3959779372        2.4245877225        1.7266147442
 H         -2.1678012914        3.1566550914        2.4622124656
 H          0.1562322983        2.8514663044        2.4325662617
  51
  -72.1271045785000       1.119282406631514E-002 !
 C          4.9597538548       -0.4271701520        0.6184702814
 C          3.6721505956        0.3234480428        0.7817615301
 C          3.6521334890        1.5735194026        1.3879618513
 C          2.4618047797        2.2458339539        1.5660345257
 C          1.2625034168        1.6932738895        1.1212390533
 C          1.2654435875        0.4495688497        0.4862913840
 C          2.4724271760       -0.2177836456        0.3435829777
 C         -0.0160327917       -0.1270927593       -0.1007470051
 C          0.0581343363        0.1891642159       -1.5935091866
 C         -0.6308039923        1.2690309608       -2.1304472476
 C         -0.5102498191        1.5919200115       -3.4710764228
 C          0.3057837159        0.8441516232       -4.2998352902
 C          1.0033841503       -0.2294524913       -3.7739015032
 C          0.8835841987       -0.5501695112       -2.4346186077
 C         -0.1144100984       -1.6147558753        0.1950517894
 C         -0.6491744348       -2.5201644062       -0.7131498701
 C         -0.7836081562       -3.8572106754       -0.3798056134
 C         -0.3952484706       -4.3085633694        0.8690228076
 C          0.1182913363       -3.4099099104        1.7884738480
 C          0.2508047720       -2.0746978198        1.4555535750
 C         -1.2454905500        0.5279220221        0.5123640512
 C         -2.4968759197       -0.0487595269        0.3681782348
 C         -3.6483479241        0.5524827264        0.8589921059
 C         -4.9822998321       -0.1102359022        0.6898553861
 C         -3.5307622125        1.7693151087        1.5169067867
 C         -2.2954741161        2.3623779042        1.6777693485
 C         -1.1466811527        1.7532751130        1.1781960419
 N          0.0778981713        2.3683176021        1.3215939945
 H          4.8696419102       -1.1885449818       -0.1524085825
 H          5.7686997532        0.2498751400        0.3511638584
 H          5.2308495525       -0.9202626363        1.5528915864
 H          4.5746859145        2.0185579201        1.7316254437
 H          2.4477668841        3.2114476442        2.0525472857
 H          2.4815886101       -1.1949220655       -0.1158900351
 H         -1.2741027382        1.8660332839       -1.5017941880
 H         -1.0579997865        2.4347749621       -3.8671947917
 H          0.3995056152        1.0954832860       -5.3461409454
 H          1.6461098242       -0.8212466635       -4.4095955142
 H          1.4341136402       -1.3932712365       -2.0464088098
 H         -0.9639787985       -2.1826277469       -1.6903239932
 H         -1.1982025029       -4.5478371435       -1.1001800786
 H         -0.4991054088       -5.3522905347        1.1271447643
 H          0.4138240828       -3.7492842593        2.7707241958
 H          0.6452398007       -1.3780273065        2.1815512695
 H         -2.5840048100       -0.9907369245       -0.1527728225
 H         -5.7849733439        0.6236441098        0.7027198098
 H         -5.0231816456       -0.6617865679       -0.2468007130
 H         -5.1561107351       -0.8167127000        1.5026009691
 H         -4.4121286772        2.2590148262        1.9051368336
 H         -2.2084627602        3.3114165355        2.1888371259
 H          0.1121967709        3.2273142253        1.8495801602
