  51
        -72.48676573
 C          4.8704408793        0.3448503324        1.1971425418
 C          3.5972048727       -0.4376206789        1.0734663223
 C          3.5531169262       -1.7948808854        1.3604080217
 C          2.3731754418       -2.5024821465        1.2408857540
 C          1.2123225926       -1.8668872583        0.8125522938
 C          1.2456907571       -0.5073309977        0.4874414182
 C          2.4353939462        0.1863046170        0.6339706657
 C          0.0036478786        0.1337216666       -0.1065294598
 C          0.0070840923        1.6237299018        0.1874394993
 C          0.0305623682        2.5911688122       -0.8062440257
 C          0.0363251141        3.9369259469       -0.4757232757
 C          0.0203402811        4.3318675800        0.8494564064
 C          0.0003377307        3.3715362535        1.8484855067
 C         -0.0054436688        2.0300914370        1.5192577615
 C         -0.0225344461       -0.1383755727       -1.6131434467
 C          1.1496137619       -0.3642868516       -2.3243423528
 C          1.1172154761       -0.5944983459       -3.6886736758
 C         -0.0874607291       -0.6003850946       -4.3686743949
 C         -1.2600149912       -0.3689545245       -3.6709829854
 C         -1.2274339339       -0.1400393384       -2.3072766372
 C         -1.2243923330       -0.5144914199        0.5105981271
 C         -2.4148562959        0.1743222850        0.6851999692
 C         -3.5640283120       -0.4565129656        1.1415663887
 C         -4.8471803561        0.3024711948        1.3024645650
 C         -3.5089412941       -1.8171869934        1.4188602171
 C         -2.3293396995       -2.5179031439        1.2754205819
 C         -1.1784928337       -1.8737205261        0.8297618356
 N          0.0182494202       -2.5578971128        0.7208123818
 H          5.6158311286       -0.2126218993        1.7592274659
 H          5.2790213215        0.5620235307        0.2094565899
 H          4.6896423476        1.2944742580        1.6977898843
 H          4.4473246657       -2.3035197695        1.6908473839
 H          2.3417585816       -3.5559264535        1.4824275771
 H          2.4671977621        1.2380155362        0.3859068687
 H          0.0447135608        2.2985214893       -1.8457302228
 H          0.0536768923        4.6786943874       -1.2615491592
 H          0.0244406772        5.3815934157        1.1046818644
 H         -0.0094348650        3.6702560017        2.8867174372
 H         -0.0182951492        1.2817769688        2.2991079681
 H          2.1004404031       -0.3606110350       -1.8132133675
 H          2.0408805379       -0.7694598617       -4.2214562145
 H         -0.1125751032       -0.7817452119       -5.4332453947
 H         -2.2076150438       -0.3654285407       -4.1901318668
 H         -2.1519304585        0.0410329547       -1.7801683082
 H         -2.4509039046        1.2297148181        0.4524210496
 H         -5.5360222816        0.0581845812        0.4930148217
 H         -5.3324564843        0.0418238592        2.2414213693
 H         -4.6675204928        1.3746610246        1.2859797209
 H         -4.3965108361       -2.3289828319        1.7620612051
 H         -2.2882344719       -3.5725161983        1.5113218313
 H          0.0232517363       -3.5193579677        1.0301805065
  51
        -72.48668391
 C          4.8923596903        0.2228602993        1.0835938764
 C          3.5915189404       -0.5172335650        0.9920960030
 C          3.5234510050       -1.8761686828        1.2701248255
 C          2.3232772839       -2.5519375604        1.1858545954
 C          1.1665103641       -1.8855021779        0.7930119179
 C          1.2246396588       -0.5278917130        0.4672710001
 C          2.4338498159        0.1369486302        0.5913951320
 C         -0.0144041316        0.1426430061       -0.1053010104
 C         -0.0068885918        1.6293538983        0.2016803722
 C         -0.1886964426        2.6025970681       -0.7700181234
 C         -0.2039686371        3.9445606180       -0.4253031864
 C         -0.0424054292        4.3302076380        0.8929722596
 C          0.1287672955        3.3639193854        1.8711963175
 C          0.1425715548        2.0259638081        1.5279135630
 C          0.0040926692       -0.1316035086       -1.6105359299
 C          1.1528019210        0.1461571182       -2.3450708798
 C          1.2050996905       -0.1040544382       -3.7032909347
 C          0.1086371177       -0.6420528893       -4.3557365384
 C         -1.0391494866       -0.9180949148       -3.6358948489
 C         -1.0922965209       -0.6637628437       -2.2755482749
 C         -1.2509082273       -0.4812921870        0.5170725092
 C         -2.4291709117        0.2295922058        0.6763686686
 C         -3.5845199731       -0.3690656655        1.1621489082
 C         -4.8516672006        0.4205052355        1.2995617777
 C         -3.5474007152       -1.7200659125        1.4824314872
 C         -2.3811128283       -2.4453721173        1.3441639856
 C         -1.2250498537       -1.8342606580        0.8679982293
 N         -0.0469378910       -2.5465595392        0.7456454926
 H          5.5216443793       -0.1954655025        1.8660762697
 H          5.4352880826        0.1473457949        0.1402982180
 H          4.7239650369        1.2770057345        1.2919248986
 H          4.4149258702       -2.4073529191        1.5708484715
 H          2.2712704102       -3.6047334799        1.4271591359
 H          2.4804831099        1.1948435763        0.3727310046
 H         -0.3244077608        2.3163928539       -1.8025412764
 H         -0.3459384103        4.6906479157       -1.1938849209
 H         -0.0539756517        5.3770113978        1.1592395766
 H          0.2489656347        3.6548960087        2.9048055121
 H          0.2715054065        1.2732664453        2.2928288609
 H          2.0169747293        0.5625547203       -1.8503539856
 H          2.1072571404        0.1200987318       -4.2540272528
 H          0.1498569121       -0.8429233164       -5.4162527655
 H         -1.9031366857       -1.3352311018       -4.1330251458
 H         -2.0006144238       -0.8821380238       -1.7346095795
 H         -2.4543266337        1.2746195485        0.4026260717
 H         -5.4361930862        0.3586282600        0.3805089773
 H         -5.4625004376        0.0336362054        2.1122525764
 H         -4.6338928692        1.4690455920        1.4892911984
 H         -4.4380290473       -2.2082648210        1.8510954961
 H         -2.3560869415       -3.4936475328        1.6078972206
 H         -0.0566755391       -3.5037615869        1.0676140998
  51
        -72.48655247
 C          4.8840714545        0.3388599433        1.1587864153
 C          3.6043767290       -0.4375001823        1.0721562481
 C          3.5472727757       -1.7799958644        1.4181969026
 C          2.3600028589       -2.4803199903        1.3298527315
 C          1.2038383820       -1.8521709922        0.8779441591
 C          1.2491055004       -0.5059216325        0.5011009038
 C          2.4467960426        0.1793591595        0.6119026619
 C          0.0136692067        0.1377881973       -0.1026471045
 C          0.0402316217        1.6234786882        0.2101641169
 C         -0.1161160678        2.0192910979        1.5356131907
 C         -0.0687661858        3.3550280343        1.8847798141
 C          0.1446624158        4.3196098556        0.9134469428
 C          0.3164087007        3.9343013959       -0.4036543526
 C          0.2677680528        2.5947998960       -0.7539597340
 C         -0.0314356058       -0.1330321803       -1.6078863931
 C         -1.1509971240        0.2504086787       -2.3400350879
 C         -1.2287017452        0.0089479424       -3.6985151748
 C         -0.1884587035       -0.6281074880       -4.3536730322
 C          0.9279254151       -1.0146390940       -3.6354952351
 C          1.0071173291       -0.7683126981       -2.2749503993
 C         -1.2323200181       -0.5093005070        0.4827034699
 C         -2.4321841198        0.1728172654        0.5952994126
 C         -3.5994022008       -0.4579955591        1.0089515861
 C         -4.8769487148        0.3191708638        1.1197635363
 C         -3.5485449585       -1.8098304309        1.3180418725
 C         -2.3564959397       -2.5028123890        1.2468690552
 C         -1.1921164472       -1.8611429554        0.8372286487
 N          0.0097459543       -2.5421391920        0.7990185460
 H          4.7244528065        1.2807784560        1.6810488910
 H          5.6482045302       -0.2285566063        1.6841776169
 H          5.2543452299        0.5717018903        0.1601180995
 H          4.4373032528       -2.2841755296        1.7662764947
 H          2.3202290884       -3.5234912516        1.6112598581
 H          2.4888384085        1.2185487336        0.3191087894
 H         -0.2783761506        1.2677670670        2.2955925808
 H         -0.1965137820        3.6453005385        2.9176410677
 H          0.1822475138        5.3646646421        1.1841659542
 H          0.4935269143        4.6787767046       -1.1665035269
 H          0.4142374768        2.3089507807       -1.7850483814
 H         -1.9713468357        0.7452647706       -1.8432668925
 H         -2.1059779456        0.3190283475       -4.2478703199
 H         -0.2491771816       -0.8208030469       -5.4147725225
 H          1.7471867910       -1.5121400331       -4.1342146147
 H          1.8909553004       -1.0751364408       -1.7366577704
 H         -2.4672148474        1.2271342625        0.3584737640
 H         -5.7327378950       -0.3481774692        1.1870138646
 H         -4.8610117459        0.9460729091        2.0120602595
 H         -5.0077273631        0.9713816113        0.2581159810
 H         -4.4455892097       -2.3242966445        1.6310861188
 H         -2.3182079483       -3.5507797801        1.5106862257
 H          0.0070412672       -3.4939026264        1.1363258684
  51
        -72.48654535
 C          4.8563823407       -1.1290754888       -0.6903897199
 C          3.6121396067       -1.0669066453        0.1441970729
 C          3.6288437759       -1.4989706013        1.4652741149
 C          2.4818677097       -1.4692645410        2.2309998666
 C          1.2912603366       -0.9889690008        1.6935243508
 C          1.2643076792       -0.5172927954        0.3789080013
 C          2.4245877005       -0.5731957437       -0.3774649421
 C         -0.0114840070        0.1350444393       -0.1263245306
 C         -0.0266447611        1.5798407318        0.3785243459
 C          1.1532416027        2.3120674022        0.4476436881
 C          1.1497717668        3.6209141136        0.8947069190
 C         -0.0351584615        4.2242111550        1.2785776823
 C         -1.2161440182        3.5073732620        1.2036133263
 C         -1.2125002830        2.1974445865        0.7567679902
 C         -0.0805883755        0.0776801051       -1.6412703633
 C          0.0231880244       -1.1650649322       -2.2610214007
 C         -0.0518987383       -1.2774953728       -3.6357067845
 C         -0.2394069957       -0.1475330477       -4.4156825709
 C         -0.3499880597        1.0897976219       -3.8079844001
 C         -0.2706073724        1.2033305485       -2.4292447457
 C         -1.1956622698       -0.6085961109        0.4679464063
 C         -2.3933692842       -0.7668331046       -0.2074043622
 C         -3.4963779468       -1.3659505016        0.3909259120
 C         -4.7679136222       -1.5391814648       -0.3845953719
 C         -3.3874546713       -1.7927368332        1.7066600267
 C         -2.1966983787       -1.6605206555        2.3944345279
 C         -1.0913044316       -1.0836751354        1.7793472722
 N          0.1233133563       -0.9919652777        2.4360169127
 H          5.1638611031       -2.1648518190       -0.8341498317
 H          4.6911522308       -0.6808352839       -1.6669381607
 H          5.6752786469       -0.6050938962       -0.1989761686
 H          4.5480532638       -1.8720576043        1.8933902853
 H          2.4978811914       -1.8214123390        3.2531776618
 H          2.4056828518       -0.2148894872       -1.3972353085
 H          2.0861100060        1.8577127498        0.1495271653
 H          2.0786683203        4.1707872093        0.9432832342
 H         -0.0376691926        5.2449148586        1.6322258988
 H         -2.1485410417        3.9683246568        1.4966042383
 H         -2.1437390305        1.6533311473        0.7047826661
 H          0.1638253903       -2.0477781622       -1.6532555580
 H          0.0338430113       -2.2487776601       -4.1011220227
 H         -0.2993220358       -0.2332104204       -5.4908533614
 H         -0.5001505010        1.9758230515       -4.4079955730
 H         -0.3631460921        2.1758515603       -1.9688138712
 H         -2.4810144900       -0.4056530916       -1.2222826950
 H         -5.0829506605       -0.5943631331       -0.8251244773
 H         -4.6177754935       -2.2497114565       -1.1976683431
 H         -5.5655958810       -1.9104587491        0.2539912475
 H         -4.2373030195       -2.2445532293        2.1976307853
 H         -2.1138008323       -2.0113922732        3.4138029888
 H          0.1728358147       -1.4055535570        3.3562980385
  51
        -72.48629662
 C          4.9145127429        0.3035697280        1.0677218724
 C          3.6243126893       -0.4589728129        1.0278499457
 C          3.5522914246       -1.7798655532        1.4464061534
 C          2.3520742371       -2.4621760350        1.4160952269
 C          1.1973623002       -1.8383842709        0.9535719425
 C          1.2543338088       -0.5120712140        0.5118364580
 C          2.4665808958        0.1547161330        0.5638713976
 C          0.0188549729        0.1363763197       -0.0904294767
 C          0.0575083757        1.6190279210        0.2367935084
 C         -0.2453209307        2.0291630572        1.5310999342
 C         -0.1850526306        3.3647240695        1.8820832148
 C          0.1958608298        4.3129878596        0.9473960052
 C          0.5253966511        3.9115620331       -0.3348174296
 C          0.4599066640        2.5740533493       -0.6875263005
 C         -0.0318501502       -0.1210216235       -1.5974915755
 C         -1.0458592935        0.4548584882       -2.3571216577
 C         -1.1412606189        0.2147940736       -3.7144305354
 C         -0.2258649057       -0.6138586360       -4.3413565000
 C          0.7834966468       -1.1938699451       -3.5956367522
 C          0.8802303016       -0.9503925394       -2.2354978883
 C         -1.2394515030       -0.5109449083        0.4704976332
 C         -2.4510901454        0.1618422627        0.5071193371
 C         -3.6259423259       -0.4591833407        0.9066971813
 C         -4.9270564834        0.2859240265        0.9055752880
 C         -3.5755765719       -1.7961683658        1.2809650854
 C         -2.3771841060       -2.4784535608        1.2833498528
 C         -1.2030108592       -1.8447569899        0.8843643100
 N         -0.0006293115       -2.5224222961        0.9180124918
 H          4.8831529109        1.0564463138        1.8556824803
 H          5.7531069258       -0.3608112476        1.2613943548
 H          5.0852119010        0.8184100068        0.1237330003
 H          4.4404626851       -2.2814451711        1.8029332926
 H          2.3004924478       -3.4898641945        1.7485178641
 H          2.5217560592        1.1766387932        0.2179370426
 H         -0.5359775638        1.2925150278        2.2665169196
 H         -0.4336394488        3.6664199403        2.8893255214
 H          0.2427140514        5.3572485398        1.2196946629
 H          0.8401044343        4.6416209740       -1.0666534658
 H          0.7316993513        2.2737488015       -1.6890096724
 H         -1.7665888680        1.1042025854       -1.8849703191
 H         -1.9346365664        0.6760308704       -4.2848345031
 H         -0.3005875345       -0.8048683921       -5.4018748677
 H          1.5043404833       -1.8425352646       -4.0723079703
 H          1.6797625942       -1.4110269451       -1.6752131360
 H         -2.4853034543        1.2047726102        0.2266249651
 H         -5.5056606519        0.0297965677        0.0170929725
 H         -5.5228797396        0.0245455672        1.7780024394
 H         -4.7590877614        1.3602579259        0.9034885781
 H         -4.4798708232       -2.3018845089        1.5872344750
 H         -2.3380395139       -3.5123329025        1.5977685120
 H         -0.0095229357       -3.4571533740        1.2991766169
  51
        -72.48602804
 C          4.9608830035        0.2368957122        0.7935340480
 C          3.6472939583       -0.4752495385        0.9137267804
 C          3.5629946036       -1.7432297807        1.4712603131
 C          2.3485217095       -2.3936702599        1.5532579285
 C          1.1890311251       -1.7920472313        1.0708088406
 C          1.2552551637       -0.5160720135        0.5024932657
 C          2.4848588093        0.1175632005        0.4370239367
 C          0.0143761291        0.1328786945       -0.0923524002
 C          0.0604709399        1.6062127862        0.2774339282
 C         -0.3082554525        1.9857769915        1.5634135691
 C         -0.2264961229        3.3064875459        1.9630090636
 C          0.2394815969        4.2709625872        1.0859262591
 C          0.6319148590        3.8999780730       -0.1876133571
 C          0.5481204473        2.5772039659       -0.5879274722
 C         -0.0338420996       -0.1073781793       -1.6006429646
 C         -0.9082795444        0.6199990975       -2.4017883431
 C         -1.0019543981        0.3722869610       -3.7583583911
 C         -0.2286196384       -0.6160278774       -4.3424994919
 C          0.6368615916       -1.3516123649       -3.5543963917
 C          0.7316731594       -1.1013383094       -2.1960704510
 C         -1.2534818441       -0.5135970633        0.4491238415
 C         -2.4753772693        0.1331996002        0.3618897287
 C         -3.6618040870       -0.4710259246        0.7560012914
 C         -4.9636949793        0.2582825268        0.6122491062
 C         -3.6110277093       -1.7645282396        1.2560022712
 C         -2.4031859535       -2.4195743384        1.3809249140
 C         -1.2189024749       -1.8038700217        0.9840969480
 N         -0.0154047452       -2.4586525391        1.1370546294
 H          4.8493220899        1.2917948029        1.0356709754
 H          5.7025990562       -0.2005068994        1.4572437140
 H          5.3347571690        0.1667774554       -0.2284964956
 H          4.4529183649       -2.2271020287        1.8471188829
 H          2.2872275746       -3.3808421449        1.9902304614
 H          2.5472600843        1.0996649611       -0.0077528056
 H         -0.6655934930        1.2371115122        2.2559728576
 H         -0.5237863551        3.5830980740        2.9641335979
 H          0.3034713971        5.3036204255        1.3960937914
 H          1.0110909065        4.6425561919       -0.8748989690
 H          0.8690678056        2.3018322848       -1.5822838184
 H         -1.5174126360        1.3972602474       -1.9673890520
 H         -1.6839894441        0.9535655120       -4.3619043212
 H         -0.3021697842       -0.8109610286       -5.4023283812
 H          1.2444778493       -2.1280029480       -3.9963331244
 H          1.4171127142       -1.6856919732       -1.6009468226
 H         -2.5119851396        1.1442305790       -0.0155072445
 H         -4.8568517509        1.3004036406        0.9066238399
 H         -5.2930099285        0.2368714930       -0.4271083397
 H         -5.7366910881       -0.2020003707        1.2224224196
 H         -4.5208002525       -2.2596953781        1.5630954976
 H         -2.3650841615       -3.4191908973        1.7911801994
 H         -0.0282368306       -3.3551646144        1.5997562685
  51
        -72.48583874
 C          4.9685481625       -0.6564182975       -0.2162921714
 C          3.6372866984       -0.8840477376        0.4348158163
 C          3.5367721130       -1.6350401735        1.5994896324
 C          2.3070269229       -1.8698054357        2.1767341288
 C          1.1475794129       -1.3395020837        1.6146405221
 C          1.2310168017       -0.5604138207        0.4587732746
 C          2.4766746959       -0.3616606153       -0.1168724489
 C         -0.0073503444        0.1155206337       -0.1147193730
 C          0.0659212453        1.5580241686        0.3829481806
 C         -0.6787148245        1.9747486111        1.4788079121
 C         -0.5613407502        3.2645706681        1.9673359268
 C          0.3069572708        4.1613254129        1.3725258500
 C          1.0600037488        3.7546109478        0.2846918301
 C          0.9432712037        2.4658510098       -0.2014783508
 C         -0.0218305053        0.0018373077       -1.6303654380
 C         -0.4917180472        1.0218223433       -2.4485365587
 C         -0.5514703282        0.8535216719       -3.8214852445
 C         -0.1522151088       -0.3394069146       -4.3973598680
 C          0.2967480753       -1.3693491040       -3.5884454508
 C          0.3546860275       -1.2012134796       -2.2174747541
 C         -1.2803228602       -0.5482672648        0.3906938346
 C         -2.4939278148       -0.3124873686       -0.2345160158
 C         -3.6844437977       -0.8499150066        0.2367816697
 C         -4.9751243548       -0.5775103229       -0.4753772251
 C         -3.6462689751       -1.6508597910        1.3700906782
 C         -2.4498918156       -1.9048505016        2.0086103219
 C         -1.2614847279       -1.3577364715        1.5304264622
 N         -0.0768780910       -1.5968201443        2.1922276938
 H          4.9324331119        0.2016196867       -0.8830249047
 H          5.7395231419       -0.4873992289        0.5328851464
 H          5.2569431975       -1.5300465690       -0.8022769814
 H          4.4274772155       -2.0468612948        2.0515014785
 H          2.2305889612       -2.4680547614        3.0742621280
 H          2.5485986646        0.2112198561       -1.0293601372
 H         -1.3633618474        1.2914109041        1.9581384367
 H         -1.1528194960        3.5672186963        2.8193343547
 H          0.3982371760        5.1680653044        1.7531170912
 H          1.7438571761        4.4443251026       -0.1886604536
 H          1.5376331354        2.1710303314       -1.0526097707
 H         -0.8141113965        1.9573341080       -2.0140456875
 H         -0.9162370146        1.6590848533       -4.4426180693
 H         -0.1977511031       -0.4687282017       -5.4687991251
 H          0.5999516419       -2.3093158587       -4.0264641672
 H          0.6989080752       -2.0127013340       -1.5921747523
 H         -2.5194511988        0.3190271285       -1.1102105184
 H         -5.8195514006       -0.6629733697        0.2048206607
 H         -4.9724277363        0.4190370508       -0.9113705367
 H         -5.1168748711       -1.2964170063       -1.2834335660
 H         -4.5593998656       -2.0782071907        1.7585509780
 H         -2.4247821183       -2.5273975905        2.8924882536
 H         -0.0993076699       -2.2243874019        2.9818334404
  51
        -72.48571070
 C          4.9929051006        0.1310952296        0.5489868569
 C          3.6674018095       -0.5248075757        0.7949768199
 C          3.5721691541       -1.7242733486        1.4863807134
 C          2.3446595773       -2.3234024428        1.6822624579
 C          1.1815676362       -1.7370458285        1.1882149411
 C          1.2569373668       -0.5262145477        0.4929295691
 C          2.5014517298        0.0536846241        0.3098440224
 C          0.0122347539        0.1276630831       -0.0930907463
 C          0.0636134635        1.5926202364        0.3124238075
 C         -0.3913653546        1.9598024908        1.5739169229
 C         -0.3052792883        3.2705291357        2.0054374024
 C          0.2503912864        4.2380928611        1.1861410147
 C          0.7266569876        3.8796774741       -0.0623836481
 C          0.6387011266        2.5674477625       -0.4943206602
 C         -0.0306814732       -0.0887546948       -1.6035303048
 C         -0.7765529400        0.7436151299       -2.4315571579
 C         -0.8636611489        0.4996192658       -3.7899264587
 C         -0.2145671447       -0.5880477475       -4.3477043892
 C          0.5187476730       -1.4303978613       -3.5316698687
 C          0.6067117299       -1.1845074283       -2.1727287021
 C         -1.2628526243       -0.5193457895        0.4322097408
 C         -2.4913568450        0.0823519294        0.2135537674
 C         -3.6855391121       -0.5036734790        0.6123305145
 C         -4.9877731017        0.1928313027        0.3533826502
 C         -3.6361164342       -1.7332285579        1.2538394522
 C         -2.4241785511       -2.3443284436        1.5019646905
 C         -1.2321357524       -1.7471279769        1.0985471176
 N         -0.0310219916       -2.3622715203        1.3702940787
 H          4.9307097375        1.2023594430        0.7312171146
 H          5.7603838651       -0.2914374701        1.1929800725
 H          5.2985190704       -0.0142400949       -0.4877162862
 H          4.4634458199       -2.1956000504        1.8748001986
 H          2.2741798930       -3.2587934964        2.2202263363
 H          2.5726763427        0.9851076982       -0.2313395207
 H         -0.8198785446        1.2103560812        2.2239025355
 H         -0.6688473036        3.5360338017        2.9875981408
 H          0.3195186744        5.2624020250        1.5218718888
 H          1.1739683248        4.6242642622       -0.7053725682
 H          1.0173835878        2.3065892062       -1.4723166733
 H         -1.2879823222        1.6006953421       -2.0200454462
 H         -1.4434082108        1.1633527304       -4.4153726682
 H         -0.2839142381       -0.7789578463       -5.4085576554
 H          1.0240306604       -2.2877663819       -3.9524869165
 H          1.1819127625       -1.8547259220       -1.5513285981
 H         -2.5269594606        1.0438347686       -0.2758003611
 H         -5.0611755955        0.4882201238       -0.6921619072
 H         -5.8280208311       -0.4538460758        0.5935423192
 H         -5.0618508875        1.0953100771        0.9606084584
 H         -4.5503498316       -2.2136608770        1.5711296862
 H         -2.3880926758       -3.2955246724        2.0150089448
 H         -0.0475397976       -3.2152066426        1.9082360276
  51
        -72.48559159
 C          5.0032279324       -0.0640827359       -0.2048010768
 C          3.7133741209       -0.5564075024        0.3794919525
 C          3.6950961995       -1.4766676560        1.4184157363
 C          2.4969927128       -1.9133026547        1.9446993198
 C          1.2864963290       -1.4278123090        1.4544199887
 C          1.2849631148       -0.4872373611        0.4211159484
 C          2.5014470640       -0.0789687619       -0.1013634647
 C         -0.0112033302        0.1139016000       -0.1075970210
 C         -0.0011966591        1.5633569014        0.3682586373
 C          0.6661706686        2.5595256236       -0.3362367437
 C          0.7180070354        3.8551006087        0.1454940159
 C          0.1130164090        4.1790958855        1.3470785347
 C         -0.5386283184        3.1923672988        2.0649850821
 C         -0.5913936272        1.8972170691        1.5814900133
 C         -0.0785297231       -0.0377661679       -1.6203298033
 C          0.4173094378       -1.1977496933       -2.2047477063
 C          0.3173623123       -1.4045354504       -3.5683389549
 C         -0.2907687771       -0.4573713918       -4.3734997013
 C         -0.8050874289        0.6918988469       -3.8002520865
 C         -0.7055753492        0.8978342616       -2.4351213797
 C         -1.2361882063       -0.6038096415        0.4450521862
 C         -2.4977516821       -0.2864397725       -0.0305395659
 C         -3.6490156542       -0.8892403842        0.4599610023
 C         -4.9902763063       -0.5121122068       -0.0933892077
 C         -3.5205448045       -1.8442280016        1.4585780924
 C         -2.2755659895       -2.1780626092        1.9510165608
 C         -1.1273733238       -1.5634443057        1.4559660898
 N          0.1019611656       -1.8892873870        1.9804461618
 H          5.8333760112       -0.6984950258        0.0960637573
 H          4.9509598183       -0.0452210272       -1.2919234994
 H          5.2073162845        0.9511381767        0.1371356586
 H          4.6234925424       -1.8619267780        1.8145494517
 H          2.4857442196       -2.6409373890        2.7447123609
 H          2.5120150439        0.6295202603       -0.9156596797
 H          1.1443611270        2.3323336098       -1.2772726527
 H          1.2350578551        4.6151843374       -0.4226270490
 H          0.1530778426        5.1912896642        1.7220767638
 H         -1.0080398088        3.4294202704        3.0089680999
 H         -1.1023235885        1.1387179944        2.1563183330
 H          0.8890689918       -1.9466944939       -1.5847955298
 H          0.7139442536       -2.3107838252       -4.0029074393
 H         -0.3676726356       -0.6157799215       -5.4394104095
 H         -1.2908824323        1.4339978890       -4.4177011969
 H         -1.1161141416        1.8015867696       -2.0075291944
 H         -2.5947851833        0.4608138659       -0.8033732477
 H         -5.0932811388        0.5705516158       -0.1446381488
 H         -5.1057452760       -0.9056677562       -1.1037004010
 H         -5.7915065035       -0.9115580305        0.5236475647
 H         -4.3993009941       -2.3299378540        1.8575816561
 H         -2.1793100867       -2.9188087716        2.7330508465
 H          0.1424278234       -2.6019016445        2.6926597699
  51
        -72.48549113
 C          5.0008697639       -0.0922188195       -0.2870095580
 C          3.7167241155       -0.6256719050        0.2732929112
 C          3.7016198181       -1.6648673125        1.1924547393
 C          2.5068966309       -2.1273344101        1.7051327854
 C          1.2964909385       -1.5640110992        1.3066467645
 C          1.2906941976       -0.5253038551        0.3711653857
 C          2.5042268876       -0.0749437047       -0.1214155306
 C         -0.0062394952        0.1196415209       -0.1019678963
 C         -0.0662489853        1.5684330502        0.3683501042
 C          0.5338811170        1.9223455838        1.5712050398
 C          0.4414219565        3.2133419255        2.0589133661
 C         -0.2615514096        4.1754867716        1.3558305778
 C         -0.8774195348        3.8306499683        0.1657515458
 C         -0.7853601965        2.5387458573       -0.3206376566
 C         -0.0187202341       -0.0428829002       -1.6159976457
 C         -0.5125093680       -1.2205890248       -2.1657288620
 C         -0.4762364633       -1.4373618600       -3.5309467738
 C          0.0643992790       -0.4819315810       -4.3736571628
 C          0.5746694172        0.6863598907       -3.8363520701
 C          0.5385854484        0.9020984191       -2.4697848031
 C         -1.2320245606       -0.5525811410        0.5038579690
 C         -2.5000399361       -0.1501545745        0.1178707320
 C         -3.6523028070       -0.7023248468        0.6618565298
 C         -5.0000802148       -0.2334934090        0.2023053646
 C         -3.5185014552       -1.6930500850        1.6241853049
 C         -2.2673678595       -2.1228867629        2.0158251204
 C         -1.1177546709       -1.5636081749        1.4618217268
 N          0.1193770351       -2.0211211788        1.8511081592
 H          4.9895084989       -0.1376040059       -1.3752908199
 H          5.1365210877        0.9501636680        0.0008153408
 H          5.8508231482       -0.6643264471        0.0764903700
 H          4.6295180393       -2.1150611746        1.5144476138
 H          2.4989092888       -2.9325701670        2.4268674096
 H          2.5134056777        0.7359064325       -0.8336408598
 H          1.0830304103        1.1811873551        2.1334082273
 H          0.9197259087        3.4673195332        2.9938691860
 H         -0.3325458732        5.1848528851        1.7336767913
 H         -1.4347802642        4.5712801907       -0.3897540970
 H         -1.2727022990        2.2951148004       -1.2531760216
 H         -0.9316164073       -1.9766437104       -1.5174219346
 H         -0.8689571140       -2.3582170022       -3.9373540178
 H          0.0933927397       -0.6489564626       -5.4404058910
 H          1.0063522834        1.4365329324       -4.4834520288
 H          0.9415134592        1.8226381366       -2.0729507944
 H         -2.6008515136        0.6156770008       -0.6357583874
 H         -5.0619778626        0.8528032713        0.2458754613
 H         -5.1744465629       -0.5357669411       -0.8305804899
 H         -5.7892544568       -0.6534196492        0.8210547823
 H         -4.3978403382       -2.1367252930        2.0682967644
 H         -2.1664194214       -2.9023311401        2.7585186015
 H          0.1620933285       -2.7736423648        2.5205715659
  51
        -72.48538785
 C          5.0132721028       -0.1713674143        0.1499850663
 C          3.6686367084       -0.7233146338        0.5171810432
 C          3.5624501854       -1.8595495565        1.3104575673
 C          2.3249215278       -2.3471197422        1.6709176185
 C          1.1587300076       -1.7160383391        1.2390983856
 C          1.2449409197       -0.5825814292        0.4283533012
 C          2.5026971278       -0.1053338676        0.0911472304
 C          0.0009650152        0.1226275951       -0.0981052519
 C          0.0124992690        1.5825333325        0.3347480359
 C         -0.5639572748        2.5900001260       -0.4302427106
 C         -0.5931435858        3.8960780491        0.0268361719
 C         -0.0551652889        4.2176471749        1.2601843977
 C          0.5042454418        3.2190505306        2.0380808719
 C          0.5320705584        1.9143176078        1.5810097156
 C          0.0298025367       -0.0749718145       -1.6098351007
 C          0.7342768934        0.7792161496       -2.4511334944
 C          0.7981042640        0.5394733666       -3.8121721527
 C          0.1662235327       -0.5635547351       -4.3585211907
 C         -0.5238116091       -1.4293059968       -3.5286703357
 C         -0.5865293726       -1.1890196468       -2.1679527641
 C         -1.2781219306       -0.4750351130        0.4752613378
 C         -2.5050707522        0.0874858473        0.1570348146
 C         -3.7012961567       -0.4214668136        0.6402452420
 C         -5.0130595205        0.1963378841        0.2594646978
 C         -3.6584747724       -1.5342582899        1.4716782271
 C         -2.4527032304       -2.1154063737        1.8001627177
 C         -1.2558724440       -1.5973508903        1.3063589239
 N         -0.0655904527       -2.2052925167        1.6299330595
 H          5.4474217324        0.3600358182        0.9978136117
 H          5.6961287562       -0.9726437121       -0.1263351865
 H          4.9327141921        0.5236736851       -0.6820175437
 H          4.4561040888       -2.3613292237        1.6523738409
 H          2.2450353036       -3.2257030185        2.2963170380
 H          2.5782739447        0.7819545794       -0.5183577755
 H         -0.9877151952        2.3625198481       -1.3978360483
 H         -1.0403292012        4.6657133712       -0.5860608754
 H         -0.0752982408        5.2380083909        1.6139508969
 H          0.9201249697        3.4556406636        3.0068049375
 H          0.9662434678        1.1424078166        2.1999881749
 H          1.2319003003        1.6496306202       -2.0496828094
 H          1.3455029598        1.2201973248       -4.4484775229
 H          0.2143272830       -0.7481986588       -5.4216463014
 H         -1.0154878570       -2.2987111420       -3.9408635086
 H         -1.1262486926       -1.8764442767       -1.5329706647
 H         -2.5316772004        0.9480076813       -0.4937357743
 H         -5.6709978863        0.2666154161        1.1237507510
 H         -4.8671954907        1.1916933523       -0.1526047726
 H         -5.5137812317       -0.4147213984       -0.4925229840
 H         -4.5767513468       -1.9492266963        1.8614647042
 H         -2.4225903768       -2.9837822704        2.4439525600
 H         -0.0882084493       -3.0110942329        2.2352213096
