72
 energy: -113.896776939909 gnorm: 0.000051320693 xtb: 6.7.1 (edcfbbe)
C           -2.24757656162163       -0.01994552673561       -3.18567809130231
C           -3.14431229411623       -0.01457684894179       -2.19396353149814
C           -2.78449639465738       -0.00363731401521       -0.72614877728328
C           -1.31044219739535        0.00279441966959       -0.48256473180092
C           -0.42009801591825       -0.00457143350305       -1.49604581427404
C           -0.84595778775164       -0.01614797726961       -2.90173105445460
C            0.25866969697482       -0.02213925902566       -3.68927136369630
C            1.43520129299136       -0.01619200541021       -2.84067966434616
C            1.00026899708253       -0.00481047750646       -1.50188123850271
C            1.90269791979939        0.00337765786243       -0.30055213346916
C            3.32499964053337       -0.00814219519598       -0.76698458316509
C            4.50295777676199       -0.01003876192313        0.04097653838406
C            4.69378560867865       -0.00231608787254        1.41074503399665
C            5.99829284131806       -0.00834734636467        1.90106687007089
C            7.08588863104000       -0.02173650070329        1.04337188387775
C            6.91199967886095       -0.02913560614467       -0.33961755334863
C            5.62472973461434       -0.02316456737806       -0.84640096446879
C            5.12451124461920       -0.02841001243116       -2.18311756360709
C            3.71986688589670       -0.01955949142037       -2.13205191993736
C            2.77787580400486       -0.02265847172484       -3.18454133037813
C            1.63556894929535       -1.27988154510575        0.46960121701743
C            1.87659843671456       -2.47067305890636       -0.21181179849100
C            1.62131064690231       -3.69963483396884        0.36260935274167
C            1.10750965660791       -3.76356955294768        1.64868634076552
C            0.86541478708159       -2.59716620542248        2.34174940622266
C            1.13032844658538       -1.35954942249116        1.75893704511132
S            0.77147294961795        0.04147965127006        2.77001785896325
C            1.14449958753786        1.41713816829110        1.72972339733288
C            0.89310465866156        2.66938806035462        2.28674455149033
C            1.14746708034435        3.81850732552683        1.56963373063252
C            1.65985279467353        3.72238548843796        0.28499113843888
C            1.90167142312484        2.47912153710908       -0.26384755721440
C            1.64840980040411        1.30536642454029        0.44227780016058
C           -3.38486912881229       -1.25838243991838       -0.10366605849896
C           -2.58298111464928       -2.36562239028583        0.14922698373279
C           -3.11651515915576       -3.53511334421074        0.65840564322919
C           -4.47375562615122       -3.62207074920646        0.92063097369083
C           -5.28612613073240       -2.53249839390341        0.67895100969942
C           -4.74384283354194       -1.35837626680111        0.17115630773523
S           -5.85437426237709       -0.01131041797049       -0.11079973226981
C           -4.75426223614803        1.34806840314596        0.15234586777319
C           -5.30567929301062        2.52514736103692        0.64314290888453
C           -4.50157509344142        3.62395352776468        0.87015972129709
C           -3.14341660887070        3.54328921998930        0.61061613418997
C           -2.60083128090017        2.37083035058098        0.11809365787367
C           -3.39440350031742        1.25443006091595       -0.12030047356870
H           -2.56809065794725       -0.02780738156222       -4.21824332389945
H           -4.20321391307299       -0.01806804742523       -2.40765794862844
H           -1.00663341474183        0.01176420460109        0.55368178486631
H            0.29056269461383       -0.03081648771944       -4.76361627239118
H            3.85612243832872        0.00796843949833        2.09185933680112
H            6.16216610484577       -0.00258554677438        2.96855194965940
H            8.08569248094213       -0.02648855221479        1.45195541283161
H            7.76713558680851       -0.03952378137990       -0.99972217185576
H            5.72229147800168       -0.03789453811701       -3.07615879590963
H            3.10242381704236       -0.03143099649775       -4.21339664251480
H            2.26665862429283       -2.41822426493110       -1.21779241875460
H            1.81789140595622       -4.60426658279648       -0.19231497347918
H            0.89697104725385       -4.71696832176739        2.10896274745496
H            0.46461280766189       -2.62187003642236        3.34415856176052
H            0.49315289469758        2.71918911836644        3.28856948169218
H            0.94757027572602        4.78348205258384        2.01011043674793
H            1.86595603404179        4.61314297284156       -0.28860553107644
H            2.29073900350566        2.40175211952368       -1.26857518328364
H           -1.52642482955647       -2.31518434558764       -0.07080964443796
H           -2.46889698787675       -4.37879092430917        0.84279779869443
H           -4.89855157216489       -4.53314142069546        1.31390090791993
H           -6.34624655798615       -2.57570914694055        0.87772191193047
H           -6.36628020384292        2.56333634775719        0.84037442353786
H           -4.93352052114503        4.53734092645567        1.25004017600183
H           -2.50227582595482        4.39423604424579        0.78394062841570
H           -1.54372150384573        2.32491189930074       -0.10046481168343
