72
 energy: -113.913539981657 gnorm: 0.000028784982 xtb: 6.7.1 (edcfbbe)
C           -2.22413807672660        0.05073915958495       -3.19481543781953
C           -3.12930485676130        0.03385833885211       -2.20973203837706
C           -2.77723693508988        0.01137519400917       -0.74122554124390
C           -1.30748429163473        0.00493905599106       -0.48606742258292
C           -0.41589645744122        0.02262504555034       -1.48683568667558
C           -0.82636028138724        0.04736604596398       -2.89780562443977
C            0.29271632314059        0.06312038717038       -3.66583857237975
C            1.45216119801644        0.04975979834171       -2.79297679191043
C            1.02073261835035        0.02467186580419       -1.47875946783727
C            1.91300157113997        0.00391400570073       -0.27833394703465
C            3.34744730607621        0.01931054819818       -0.71399394767637
C            4.48869942927892        0.01075884713481        0.04108565180780
C            4.70914404229340       -0.01390253907133        1.44346058734266
C            5.98219869960252       -0.01627141553923        1.90965841009440
C            7.10032592703415        0.00553067532108        1.02337136889629
C            6.94379569626352        0.02939439986256       -0.32499732199776
C            5.63573335273840        0.03281267606068       -0.87076470290558
C            5.17764714342142        0.05395680369479       -2.16648164962421
C            3.75054584944711        0.04651384458481       -2.12129680184096
C            2.82822989072350        0.06065131118593       -3.13009455767705
C            1.63686094558266       -1.30685401674879        0.44058875196653
C            1.93978864737397       -2.47417412759121       -0.25675697979979
C            1.69803315575900       -3.72264236469480        0.27915723600332
C            1.14143772963791       -3.83196092547821        1.54457769336901
C            0.83885673635467       -2.68979242153980        2.25306339966393
C            1.08238428413554       -1.43136847481376        1.70550500004479
S            0.62364224425014       -0.06655091028042        2.72603570836582
C            1.07053567561956        1.34498766341177        1.76548522785466
C            0.81612741423656        2.57646737256000        2.36665493739357
C            1.10750196901082        3.75066354098906        1.70752664034253
C            1.66359577403644        3.70078244754180        0.43815981420729
C            1.91653717027993        2.47866711852856       -0.15079961794115
C            1.62515717419309        1.27983469760115        0.49615536958133
C           -3.38392974125817       -1.25148612446971       -0.14111833384624
C           -2.58780067456057       -2.36530813447546        0.10128727648381
C           -3.13116741615989       -3.53931410108781        0.58948139091519
C           -4.49108714189639       -3.62383907480820        0.83846919306086
C           -5.29689963825381       -2.52734273509168        0.60649681015680
C           -4.74546433649339       -1.34769278197683        0.12169513696298
S           -5.84522179736239        0.01089445137606       -0.14535071489473
C           -4.73881847139105        1.35622446183892        0.15861496201539
C           -5.28465230986356        2.52504453388802        0.67498900460593
C           -4.47357662541340        3.61083585864963        0.93701013664800
C           -3.11391207415316        3.52617993852590        0.68674987419882
C           -2.57608793288742        2.36317159460058        0.16712111831706
C           -3.37762859342007        1.26043372430944       -0.10618074032127
H           -2.53565843343938        0.06726578251505       -4.22958457851205
H           -4.18635396575561        0.03657835240329       -2.43019604960743
H           -1.01465171874734       -0.01293093174007        0.55362996732679
H            0.34500449824512        0.08264954443946       -4.73900803428374
H            3.86454068181716       -0.03037644367142        2.11740908070734
H            6.17466226984064       -0.03492888189452        2.97283549156908
H            8.09083532732060        0.00261326179259        1.45620425651270
H            7.79587793562782        0.04583230577711       -0.98968183924125
H            5.76625612545223        0.07306424361990       -3.06405049277014
H            3.12913421452152        0.08041426006723       -4.16864507066376
H            2.37426778639935       -2.38763008081623       -1.24180677758681
H            1.94158146007808       -4.60781337336336       -0.28825312026321
H            0.94609029970848       -4.80170017064567        1.97648212325307
H            0.40549555646658       -2.74863069327551        3.24040158055415
H            0.38323972222060        2.58900649477073        3.35586611414080
H            0.90373681090006        4.69913755613600        2.18078211107792
H            1.89808915869014        4.61167777346911       -0.09107883155400
H            2.35075608471171        2.43823408039113       -1.13895727131146
H           -1.52918434928883       -2.31926612586909       -0.10949309404318
H           -2.48866871442401       -4.38795207608329        0.76762631829067
H           -4.92301992905398       -4.53861403172483        1.21452251706260
H           -6.35866449853311       -2.56876450572145        0.79595003123651
H           -6.34632858174092        2.56661045810271        0.86490971353346
H           -4.90121062188094        4.51727957778618        1.33736321999589
H           -2.46716933491280        4.36630265919676        0.88832935521554
H           -1.51753042906587        2.31767252101849       -0.04386583261128
