  76
       -110.05912495
 C          4.7603910806        4.0974622297       -0.9475573090
 C          3.6261996880        3.9698064574       -0.1638526873
 C          3.1058406980        2.7178282712        0.1084460809
 C          3.7088127463        1.5751330456       -0.4048927649
 C          3.1697540313        0.2054279719       -0.0437192268
 C          1.6569876038        0.1738628543        0.0124585287
 C          0.9108426950        0.8508703113       -0.9464648143
 C         -0.4678117803        0.7790228338       -0.9405917499
 C         -1.1484116020        0.0322868179        0.0172029228
 Si        -3.0400416190       -0.0293100202        0.0146370517
 C         -3.6455818542       -1.4895212135        1.0588980978
 C         -4.0829862521       -2.6719111989        0.4719009837
 C         -4.5108801903       -3.7364135182        1.2450490225
 C         -4.5064416670       -3.6356278819        2.6260905519
 C         -4.0758393921       -2.4644657460        3.2273829318
 C         -3.6516161523       -1.4036568897        2.4482662311
 C         -3.6284946203       -0.2282919514       -1.7757936521
 C         -4.7531165723        0.4374500189       -2.2513269886
 C         -5.1860462067        0.2658638637       -3.5540588222
 C         -4.4976661658       -0.5802792341       -4.4071170762
 C         -3.3733998883       -1.2484887418       -3.9510529165
 C         -2.9453150668       -1.0710877708       -2.6480918865
 C         -3.7495211693        1.5654995826        0.7536261457
 C         -2.9931251752        2.7294134450        0.8388560344
 C         -3.5295047052        3.8922301368        1.3624503403
 C         -4.8393085573        3.9104730880        1.8111512257
 C         -5.6061337291        2.7593956838        1.7368790256
 C         -5.0628943871        1.6002568630        1.2138317524
 C         -0.3930778306       -0.6499248061        0.9635817294
 C          0.9883470478       -0.5878940695        0.9609992444
 C          3.8369596611       -0.2212223138        1.2491466814
 C          3.8063453829        0.4003374352        2.4789820572
 C          4.5159281466       -0.1660195690        3.5294584343
 C          5.2466727609       -1.3302985201        3.3473346285
 C          5.2866307093       -1.9558550653        2.1117099995
 C          4.5789100182       -1.3956984196        1.0610764753
 C          4.4332983578       -1.8184428334       -0.3222202104
 C          4.9482471778       -2.9143383498       -0.9948847407
 C          4.6380496426       -3.0764961015       -2.3354290851
 C          3.8266364163       -2.1627647170       -2.9906715814
 C          3.3083073767       -1.0624382891       -2.3209213368
 C          3.6192813568       -0.8918784537       -0.9889897113
 C          4.8533416536        1.7099582985       -1.1792206164
 C          5.3725298921        2.9634953715       -1.4520364153
 H          5.1659930959        5.0752053166       -1.1611642415
 H          3.1436258936        4.8493104683        0.2373738816
 H          2.2167299323        2.6270304288        0.7150482018
 H          1.4142449137        1.4461170225       -1.6945607538
 H         -1.0315251470        1.3064737947       -1.6975249021
 H         -4.0916956778       -2.7538118940       -0.6055578607
 H         -4.8494973723       -4.6466132655        0.7709169153
 H         -4.8395263439       -4.4656559704        3.2320107977
 H         -4.0730728715       -2.3793268165        4.3048078925
 H         -3.3234649388       -0.4885289757        2.9213119978
 H         -5.2912110692        1.1019934087       -1.5907088880
 H         -6.0615206683        0.7925585513       -3.9061798030
 H         -4.8345803648       -0.7169818948       -5.4243914026
 H         -2.8308908095       -1.9083148897       -4.6132286459
 H         -2.0641439528       -1.5902004311       -2.2975116864
 H         -1.9695267609        2.7191448152        0.4929301916
 H         -2.9261285300        4.7869810652        1.4215337319
 H         -5.2607921505        4.8174156950        2.2195894587
 H         -6.6280693765        2.7669606754        2.0883855893
 H         -5.6623563813        0.7018485710        1.1648964077
 H         -0.8959409124       -1.2455065198        1.7117042154
 H          1.5508426889       -1.1338042030        1.7040930410
 H          3.2404653176        1.3079622016        2.6269084295
 H          4.4986423150        0.3068804361        4.5003833673
 H          5.7918118172       -1.7527564523        4.1786670992
 H          5.8586041916       -2.8610688322        1.9718083285
 H          5.5779892170       -3.6285750393       -0.4855737829
 H          5.0304124878       -3.9249565622       -2.8767189378
 H          3.5942877366       -2.3083946050       -4.0354083357
 H          2.6767516040       -0.3556758130       -2.8379705062
 H          5.3406793737        0.8303803385       -1.5730999398
 H          6.2610474324        3.0532548800       -2.0599139328
