  92
       -130.86074497
 C         -8.8698964321       -3.0247986636        2.0046951267
 C         -7.7878569852       -2.1421278890        1.4614735511
 C         -7.5303447725       -0.9022530527        2.0315979728
 C         -6.5495731060       -0.0633809334        1.5310502460
 C         -6.3032583605        1.2546006450        2.2051439211
 C         -5.7698626991       -0.4548771650        0.4283881874
 B         -4.6034999780        0.4573651357       -0.0878600394
 C         -3.1578787894       -0.1384027885       -0.1244007715
 C         -2.7878679222       -1.1982519614        0.7114418237
 C         -1.5074260070       -1.7101891155        0.7105060220
 C         -0.5506510878       -1.1910529388       -0.1587156576
 N          0.7486560518       -1.7112869795       -0.1682692082
 C          1.0828930648       -3.0491843413       -0.2312563625
 C          0.2626629516       -4.1604089448       -0.3684233594
 C          0.8647776301       -5.4018482594       -0.4374388512
 C          2.2498649763       -5.5441564813       -0.3820739102
 C          3.0725632466       -4.4415029203       -0.2714152587
 C          2.4901256206       -3.1827792964       -0.1996404372
 C          3.0224472313       -1.8528796454       -0.1060763255
 C          4.3118281477       -1.3529093521       -0.0082004847
 C          4.4857463222        0.0200249313        0.0875132634
 N          5.7798136541        0.5572324659        0.1737113535
 C          6.2213836457        1.4549179279        1.1226956305
 C          5.5484300663        1.9978856081        2.2085121830
 C          6.2407661761        2.8685547565        3.0276346885
 C          7.5744061520        3.1914256528        2.7852591789
 C          8.2565086842        2.6366038038        1.7212380716
 C          7.5821588081        1.7582337496        0.8832107957
 C          7.9711100552        0.9987778195       -0.2711909198
 C          9.1570429359        0.8832780971       -0.9846158286
 C          9.1876303514        0.0537561498       -2.0874116550
 C          8.0510893567       -0.6447268235       -2.4901220970
 C          6.8599281679       -0.5459772360       -1.7974676124
 C          6.8284136435        0.2693231608       -0.6746019083
 C          3.3803606612        0.8794861983        0.1069329745
 C          2.0906953145        0.3952484824        0.0306239448
 C          1.9126655467       -0.9756165778       -0.0957380080
 C         -0.8993830844       -0.1485204529       -1.0142876855
 C         -2.1763953773        0.3715843550       -0.9817877880
 C         -4.8107416811        1.9404347254       -0.5531599037
 C         -4.0769958799        2.9937363996        0.0086913371
 C         -3.1187487300        2.7753040657        1.1466807982
 C         -4.2464209472        4.2944122613       -0.4467327941
 C         -5.1317549141        4.5945392368       -1.4677924388
 C         -5.2959703224        5.9961907734       -1.9711560475
 C         -5.8611684713        3.5522640432       -2.0253952787
 C         -5.7181114985        2.2490977077       -1.5819247627
 C         -6.5206592545        1.1616426317       -2.2340339163
 C         -6.0364039635       -1.7035320893       -0.1493322233
 C         -5.3024558980       -2.1849666436       -1.3697135938
 C         -7.0330443212       -2.5220442616        0.3648112446
 H         -8.7101371400       -4.0599373335        1.7123347825
 H         -8.9078812801       -2.9648858787        3.0904895974
 H         -9.8389509766       -2.7075833945        1.6177768462
 H         -8.1117398417       -0.5857502418        2.8868187378
 H         -5.3345069477        1.2515911219        2.7028949489
 H         -6.2978465062        2.0599003640        1.4757971743
 H         -7.0697712879        1.4557002318        2.9497779120
 H         -3.5235026979       -1.6114145504        1.3861404209
 H         -1.2329354390       -2.5048523525        1.3883844134
 H         -0.8102343328       -4.0594940764       -0.4312569792
 H          0.2474940914       -6.2819769801       -0.5398914152
 H          2.6810336658       -6.5323348675       -0.4361048755
 H          4.1463488450       -4.5490251138       -0.2455934272
 H          5.1634718670       -2.0148126750        0.0099219851
 H          4.5203674312        1.7404840864        2.4148933958
 H          5.7374749490        3.3065198253        3.8771039675
 H          8.0793813690        3.8786192033        3.4476498391
 H          9.2946229309        2.8732947691        1.5428901057
 H         10.0332824556        1.4358927413       -0.6807014909
 H         10.1006839491       -0.0532577021       -2.6538393697
 H          8.1020350479       -1.2765492792       -3.3646223210
 H          5.9803192318       -1.0788945477       -2.1263149201
 H          3.5504053677        1.9430934980        0.1762166498
 H          1.2483528178        1.0684673460        0.0708454832
 H         -0.1659683880        0.2383925281       -1.7063242539
 H         -2.4344656692        1.1850276729       -1.6442712816
 H         -3.3577073758        3.4473142470        1.9705227566
 H         -3.1521934266        1.7530616931        1.5069100751
 H         -2.1005014126        2.9961152780        0.8260015000
 H         -3.6735221601        5.0886539983        0.0125200633
 H         -4.7509986516        6.1233519717       -2.9071243621
 H         -4.9105567870        6.7155410449       -1.2525862762
 H         -6.3443797466        6.2156483268       -2.1636396993
 H         -6.5599202676        3.7674225821       -2.8223652192
 H         -5.8657086358        0.4731559861       -2.7655096686
 H         -7.0634333356        0.5906505329       -1.4851968591
 H         -7.2305495479        1.5792091004       -2.9441957839
 H         -6.0008029173       -2.3056268278       -2.1981328169
 H         -4.8483756741       -3.1567004895       -1.1778356424
 H         -4.5257726621       -1.4892071228       -1.6682540774
 H         -7.2204333402       -3.4779014072       -0.1054377236
