69
 energy: -112.076567065257 gnorm: 0.000071324796 xtb: 6.7.1 (edcfbbe)
N          -10.67121327949215       -2.63942055296844        0.58577187002140
C           -9.61953178417112       -2.18484728537037        0.47555650100490
C           -8.33659775549153       -1.62800354430261        0.34275505165731
C           -7.77405847969268       -1.44075141799410       -0.92770286347407
C           -6.51581414606683       -0.90268265589118       -1.05124050791064
C           -5.77682441890194       -0.50865053516200        0.07818597226514
C           -4.45687063768319        0.07605383677630       -0.06338897097191
C           -4.15028795390329        1.32100578180651        0.57492013461117
C           -5.11844544069835        2.05580976775812        1.26545582148022
C           -4.79535902307276        3.22262865034828        1.95458975226074
C           -3.49136834634142        3.67236909145344        1.96668932736609
C           -2.52220924377599        3.00121023583511        1.22686221111799
C           -2.83409770164971        1.86439058926636        0.47229691405773
C           -1.87082904105957        1.24189375807694       -0.37712909972628
C           -0.55779032461242        1.85744957645441       -0.56024344311143
C           -0.44506889048572        3.18385503594822       -0.99828821196524
C            0.79486692598804        3.76584179098787       -1.18400086373919
C            1.95211175439165        3.05009435616134       -0.93491168830808
C            1.85962288923903        1.72736872977050       -0.49616929029156
C            3.04981626581855        0.94908111111132       -0.23577919871312
N            3.08120722614887       -0.30707922390723        0.10898093029104
C            4.40820993054534       -0.61301182809415        0.22777815144758
C            5.04400227522666       -1.83912120773220        0.57341639882371
C            4.30543503274283       -2.99099205248529        0.86317644677131
C            4.94540814480417       -4.16129805872000        1.18998018211356
C            6.33809017457622       -4.19135017171502        1.23122226342963
C            7.07506509870720       -3.06454683370253        0.94849428790345
C            6.46050352858626       -1.84850999030769        0.60998555463703
C            7.22144833704628       -0.64727462082564        0.30688900004471
C            8.62369537270518       -0.61059719384862        0.33475554199748
C            9.32379626703962        0.53777622672673        0.04382984963819
C            8.65690813364714        1.71506186473662       -0.29111253646404
C            7.28501805462619        1.72495542926455       -0.33069908284385
C            6.56157580299007        0.56185348560375       -0.03612056447667
C            5.14693823948608        0.52176792248459       -0.06268968889300
O            4.27827715261654        1.51907012522692       -0.35904521999354
C            0.61102274002111        1.13941456335064       -0.31337840175431
C           -2.19026510131207        0.02898146801893       -1.05791194520268
C           -1.29533916842977       -0.57534944437384       -1.94834265921225
C           -1.56717652538287       -1.81194408131449       -2.52636672843212
C           -2.73844207163480       -2.47124120818003       -2.21634753627286
C           -3.67541115860545       -1.86167425469532       -1.38509780739385
C           -3.45952659718587       -0.58980848615419       -0.84686360533168
C           -6.35814855618027       -0.69571121379260        1.34449063574168
C           -7.60682405856536       -1.25351254655322        1.47970799451137
H           -8.34164668083225       -1.71814572547287       -1.80441380629149
H           -6.10041990291344       -0.73554334525720       -2.03404930639310
H           -6.14442002845764        1.72205143239640        1.26155353727973
H           -5.56770998201640        3.75914549049792        2.48501673354090
H           -3.21859547352384        4.55194476874832        2.53050358503088
H           -1.50676554046481        3.36580118795598        1.23907369903160
H           -1.34214907503763        3.74298567659356       -1.21952650509859
H            0.86096174599385        4.78641041114396       -1.53127245704735
H            2.92275706859161        3.49930784034787       -1.07871203454467
H            3.22877272750561       -2.92729440707091        0.81994006947164
H            4.37740552249891       -5.05201824658248        1.41362256026688
H            6.84551512387404       -5.11004135112218        1.48739717092818
H            8.14997627806973       -3.13340137843651        0.99179476674624
H            9.18102956327184       -1.49737426823654        0.58908358022573
H           10.40336018781967        0.52724460075531        0.07579979278890
H            9.21709794491501        2.60994811195141       -0.51734869004236
H            6.73899964909342        2.62130714234457       -0.58645013674113
H            0.56736245105221        0.12543459970255        0.05246529523988
H           -0.37164103125031       -0.07514473536617       -2.19405257168970
H           -0.84914644017153       -2.25406085081621       -3.20076287882293
H           -2.94259833694596       -3.45088769127264       -2.62165200286055
H           -4.58420315224763       -2.39306012254590       -1.14853314700824
H           -5.79074201964787       -0.43651163190326        2.22613442871265
H           -8.03449924654965       -1.41277941600647        2.45926382731385
