69
 energy: -112.144265028066 gnorm: 0.000044904914 xtb: 6.7.1 (edcfbbe)
N          -10.64732965068502       -2.61643985892234        0.66069696542145
C           -9.60267536744649       -2.15606329278630        0.53625787757142
C           -8.31938703201728       -1.58898411813151        0.38274250429161
C           -8.04972557732528       -0.75657649369236       -0.70620739370191
C           -6.79259455186421       -0.20647173590898       -0.85168607837799
C           -5.78915232335384       -0.46864947607133        0.08000761674802
C           -4.44380214653316        0.12308114678697       -0.08204627310546
C           -4.01874832812959        1.13559354961499        0.78989165274610
C           -4.85922863941753        1.64143022712510        1.81721228485147
C           -4.42753073099289        2.61041567396362        2.66985324576923
C           -3.12326469168910        3.13183318709395        2.55125685813932
C           -2.29431359553629        2.69008420753989        1.56637768043918
C           -2.71258600118704        1.69824765621616        0.63960062018706
C           -1.87650921233632        1.25403540068909       -0.39500684800796
C           -0.53975124262248        1.86352419529699       -0.57172041716929
C           -0.42288869396900        3.18314065247380       -1.00684153399251
C            0.82444160861729        3.75881277333900       -1.17919600813582
C            1.97112848749010        3.03131464019565       -0.92222305613726
C            1.86759139397268        1.70902225415298       -0.48911108016997
C            3.05201641474447        0.92183925067315       -0.22896030759949
N            3.07619300229057       -0.33170520205091        0.12509471089376
C            4.40162526488326       -0.64595453207213        0.24131534665816
C            5.03078617411118       -1.87369827981323        0.59350224601369
C            4.28602376826489       -3.01875146589706        0.89421898402345
C            4.91967813224232       -4.19094593154039        1.22655522186278
C            6.31227864413546       -4.22988048916230        1.26234367584881
C            7.05537713389201       -3.10986139479494        0.96898199970565
C            6.44737857686554       -1.89219622504441        0.62454654161871
C            7.21513733101141       -0.69818635221067        0.31022728616364
C            8.61771293992259       -0.67048431701984        0.33248612351875
C            9.32409523023783        0.47132651995145        0.03109954563366
C            8.66360473615181        1.65058216246322       -0.30949674391280
C            7.29165619852345        1.66910290725084       -0.34402554156929
C            6.56188581320637        0.51275600533568       -0.03873899314449
C            5.14689435763323        0.48164828393733       -0.05991986696100
O            4.28403830878931        1.48250790110071       -0.36045917706155
C            0.61035295238734        1.13133198752811       -0.31480525377354
C           -2.30482274118477        0.24592258494718       -1.27093756692785
C           -1.49091575767155       -0.21349202906641       -2.34045187994451
C           -1.90949119327334       -1.20733127862436       -3.17081128273514
C           -3.17079711659842       -1.80753835434583       -2.98219335557558
C           -3.99016139378095       -1.38263542305827       -1.98209748276181
C           -3.60103992384157       -0.33539713033903       -1.10494371862407
C           -6.06794610150968       -1.29818858450626        1.16543848888980
C           -7.31923240345799       -1.85907259736166        1.31981919657326
H           -8.82802862172329       -0.55084452741946       -1.42663255657354
H           -6.58011320234610        0.43854223833894       -1.69147503288201
H           -5.85810109091132        1.24204609251555        1.91217267359178
H           -5.07885228026118        2.98428340442168        3.44645260035432
H           -2.78964495634135        3.88706926507210        3.24792492468413
H           -1.29523168228429        3.08960922184381        1.47699539646365
H           -1.31692151767681        3.75280241367836       -1.21429112872554
H            0.90228743172995        4.78145316790570       -1.51754223868210
H            2.94675183273422        3.47348903904301       -1.05624054363399
H            3.20964671732739       -2.94834753221643        0.85473179574785
H            4.34676924875359       -5.07638808361910        1.45850311450794
H            6.81476111313655       -5.15006719232221        1.52282028119010
H            8.12998298400831       -3.18547719033580        1.00836153820979
H            9.17024258351911       -1.55908505341782        0.59089657928555
H           10.40368077592906        0.45403253886013        0.05909270314017
H            9.22866532393222        2.54027807101348       -0.54393876781865
H            6.75042887332149        2.56711460720374       -0.60409699127814
H            0.55038959104638        0.10902367594542        0.02496850994449
H           -0.52261822482720        0.24191236282415       -2.48408959069821
H           -1.27704775784989       -1.54632377706201       -3.97836146334944
H           -3.48153788846304       -2.60591991052187       -3.64029401041726
H           -4.95585141039145       -1.84470338223258       -1.84010009233628
H           -5.29113284140088       -1.50548187542415        1.88663791840280
H           -7.53331639184366       -2.50578256783919        2.15821014653317
