69
 energy: -112.076453152415 gnorm: 0.000061747134 xtb: 6.7.1 (edcfbbe)
N          -10.64285547192758       -2.69400179546564        0.29710092635459
C           -9.59508288419981       -2.22111719638466        0.23903759576522
C           -8.31702262951861       -1.64217158509363        0.16952401992818
C           -7.78206140199760       -1.25365545944878       -1.06685530399210
C           -6.52815068637500       -0.69538548944609       -1.13017384484819
C           -5.76590785567445       -0.48016261186857        0.03168659019748
C           -4.44925461117891        0.12355616855030       -0.04131452764041
C           -4.12808032273937        1.24891987171733        0.78490688961823
C           -5.08189339820321        1.86182538954214        1.60244291337072
C           -4.74316168406207        2.89982253223739        2.46773625753413
C           -3.43806308572515        3.34222907187061        2.52952052415362
C           -2.48386584993277        2.80094136842415        1.67307211234465
C           -2.81196213263023        1.80105357404395        0.75017791363811
C           -1.86466691873900        1.32256035023312       -0.20333132973138
C           -0.54583678947518        1.94667645547601       -0.29785424487919
C           -0.41773838908073        3.32306746536130       -0.52588813191485
C            0.82958986565748        3.90984402134709       -0.63146462677773
C            1.97808482637079        3.14858112964441       -0.50872505821092
C            1.86965473343101        1.77599405437165       -0.27413429659645
C            3.04997477090916        0.95283853944566       -0.13418468696719
N            3.06540422789590       -0.32327161313622        0.12857386291058
C            4.38841752717655       -0.66529783096318        0.16692998707182
C            5.00890066726178       -1.92139863042514        0.42077619173376
C            4.25634920761456       -3.06906052815915        0.69068821819056
C            4.88189546149920       -4.26608148933691        0.93937193211679
C            6.27396581687404       -4.32793340967736        0.91949494038144
C            7.02461318296939       -3.20608670611310        0.65365346630858
C            6.42504603826325       -1.96340310690531        0.39432152234274
C            7.20071332356503       -0.76654507124215        0.11199933283839
C            8.60296534704461       -0.76487311798322        0.06543545367303
C            9.31709305488399        0.38011714982959       -0.20394126195149
C            8.66498324490518        1.58882447977983       -0.44213310381535
C            7.29370562768773        1.63355588573996       -0.40626410756352
C            6.55605257476382        0.47399252430486       -0.13384531627377
C            5.14130948799994        0.46836384787342       -0.08943081448532
O            4.28543736885059        1.50185598756072       -0.28022680513918
C            0.61376358976158        1.18387706094973       -0.17323691933046
C           -2.20097048870317        0.24018776666616       -1.07015806574674
C           -1.32284824245311       -0.20822012251937       -2.06357214684174
C           -1.60948137375235       -1.32995831095431       -2.83595164894043
C           -2.77739751508480       -2.03109672861900       -2.61901396845108
C           -3.69755383847578       -1.56871573913687       -1.68081160404716
C           -3.46874212331318       -0.40386989703916       -0.94276727683622
C           -6.32017301837656       -0.86761297751578        1.26445119058061
C           -7.56439013840865       -1.44653265944667        1.33608481686308
H           -8.36749670106802       -1.39231751554764       -1.96446768235403
H           -6.13493261875489       -0.37269578687592       -2.08291917404030
H           -6.10893696209826        1.53375220426846        1.56197731483246
H           -5.50448349230938        3.34189604719513        3.09279466078756
H           -3.15327453243114        4.11840621845561        3.22403714993282
H           -1.46758104703523        3.15958008222445        1.72521341229982
H           -1.30822416723615        3.92201117040142       -0.64690089989620
H            0.90790242763949        4.97099204522665       -0.81685188285412
H            2.95417597910169        3.60181598605985       -0.58968531836057
H            3.18063017708795       -2.98016289950890        0.69791997330632
H            4.30318993888290       -5.15327582987526        1.14916311635132
H            6.77011093804097       -5.26735441783169        1.11546218292140
H            8.09851235091671       -3.29984066061936        0.64894794487264
H            9.14908528567478       -1.67708824039507        0.24242895065869
H           10.39615962602175        0.34203757292315       -0.23189816097257
H            9.23591072061014        2.48075003577096       -0.65267577762729
H            6.75887948367997        2.55455012429149       -0.58718329849958
H            0.55695274181810        0.12625136899457        0.03189590778852
H           -0.40112729047633        0.32505117185453       -2.23675961777270
H           -0.90519062552572       -1.65362322296337       -3.58768357542438
H           -2.99231120930019       -2.92910043271774       -3.17859883507186
H           -4.60247622651272       -2.13345223927417       -1.51856302667142
H           -5.73448655466881       -0.74787884327988        2.16388847501242
H           -7.97053279464637       -1.76028918761037        2.28707771858148
