69
 energy: -112.144021750323 gnorm: 0.000063173312 xtb: 6.7.1 (edcfbbe)
N          -10.54153653856589       -3.02362121198988       -0.02106530077384
C           -9.52040737563823       -2.49854029386499       -0.01720742624096
C           -8.26368285941121       -1.85543174221714       -0.01259709103684
C           -8.19235098256703       -0.46059080195658       -0.02367383331242
C           -6.95990534872706        0.16093971672391       -0.01863319092566
C           -5.78689158796108       -0.59048872575632       -0.00306917849720
C           -4.46662796802173        0.08210795953911        0.00232086078079
C           -3.85781938423785        0.40531007906491        1.22157806491589
C           -4.47264740390317        0.10926022237162        2.46725126677403
C           -3.86848072036799        0.42927657131829        3.64401952100607
C           -2.60950171304338        1.06490894505612        3.64896232980882
C           -1.98709326309826        1.36695281946485        2.47690583939974
C           -2.58261792470305        1.05222054710686        1.22649808879714
C           -1.95403408107766        1.35821407934802        0.01289547608609
C           -0.63643626242041        2.03853632405031        0.01819166681463
C           -0.56464784698590        3.42891895431637        0.02886595168834
C            0.66493242601520        4.06812126975700        0.03262983669734
C            1.83374639898401        3.33243803185618        0.02604021035217
C            1.77347933926634        1.93781469731043        0.01581991412401
C            2.99884398428439        1.17072680836764        0.00889187808621
N            4.20632547258184        1.65988902386953        0.00323260232567
C            5.03398105119951        0.57179583258252       -0.00260009768438
C            6.45566679372289        0.49513275442733       -0.01132241993118
C            7.25163160954028        1.64518337745623       -0.01524449411100
C            8.62095481512524        1.54120505999222       -0.02461675053489
C            9.21135909906456        0.27884795498133       -0.03005847285026
C            8.43876356594614       -0.85941611917395       -0.02610620587296
C            7.03627639705414       -0.79750084200014       -0.01651188662994
C            6.20255965395331       -1.98867988987623       -0.01221301238909
C            6.73481090384987       -3.28684328688558       -0.01611521364549
C            5.92679078948710       -4.40065473655351       -0.01189435876565
C            4.53861314443145       -4.27543321264644       -0.00337721545955
C            3.97434142923563       -3.02424021861335        0.00059852094151
C            4.78704743438939       -1.88299919483851       -0.00369122934072
C            4.25319213634772       -0.57190229181277        0.00029403242760
O            2.95339126541965       -0.18826859933271        0.00746881831936
C            0.53571478302469        1.29642012235460        0.01189444209517
C           -2.56321127485698        1.03405266910712       -1.20589531797294
C           -1.94895599801040        1.33245696016641       -2.45124142138614
C           -2.55289116988424        1.01358095247303       -3.62848263726247
C           -3.81107350141135        0.37638767078425       -3.63418092719616
C           -4.43329069077797        0.07243854712786       -2.46256872918915
C           -3.83835887270685        0.38700078430002       -1.21176730316914
C           -5.86605590000495       -1.98143923519260        0.00761641481549
C           -7.09200370254208       -2.61556220854462        0.00317141548255
H           -9.10266927679421        0.12090790799748       -0.03587885663432
H           -6.89895440015101        1.23920798557588       -0.02680364700729
H           -5.43662838072215       -0.37849011183539        2.46386632782830
H           -4.34776747166825        0.19861345020822        4.58433046613474
H           -2.14485754323006        1.30981521187034        4.59300175728601
H           -1.02287709228861        1.85411145311978        2.47870307166766
H           -1.47816768339390        4.00531659279786        0.03379001682350
H            0.70839235221598        5.14698248220300        0.04067413665115
H            2.80103468684286        3.80898467909186        0.02868692842914
H            6.75664202397707        2.60435887988614       -0.01094929734640
H            9.23746983873642        2.42772129295927       -0.02776462638113
H           10.28817168288996        0.19238229503259       -0.03746110937961
H            8.93771787152272       -1.81496628900473       -0.03063615908913
H            7.80281942292801       -3.43142737635088       -0.02243958803097
H            6.37369914473298       -5.38395074901861       -0.01509392267033
H            3.91459127813650       -5.15660327577542       -0.00002094909861
H            2.90197845150768       -2.89388424207836        0.00714814149267
H            0.49142149938231        0.21714429568405        0.00370576937298
H           -0.98559341645782        1.82126605205686       -2.44495454127824
H           -2.07413028479520        1.24636923415704       -4.56853282539931
H           -4.27543790495414        0.13196222067778       -4.57849854806949
H           -5.39688243088668       -0.41608639023375       -2.46731588942466
H           -4.95684870773660       -2.56426572503134        0.01976583763500
H           -7.15502378180164       -3.69399799801220        0.01166206892978
