100
 energy: -160.072189992328 gnorm: 0.000150516503 xtb: 6.7.1 (edcfbbe)
N           11.17000978559772        4.36507742049835        0.11626870933115
C           10.19837151186457        3.75709973499561        0.10299088720395
C            8.99856428519955        3.00839018860479        0.08642467917759
C            7.76406296469893        3.67022818583472        0.10353078681316
C            6.61165877199328        2.92608463390172        0.08715827684796
C            6.65728102830031        1.52771056061843        0.05366831546098
C            7.89442534800656        0.85081165842761        0.03580167929846
C            9.05856822737754        1.62195004641519        0.05317746285596
C            7.92453482158566       -0.60587947134556        0.00033530904167
C            9.11956821414699       -1.32825172615671       -0.01948356568505
C            9.11682594796282       -2.71595477975590       -0.05296259368118
C           10.34626512975562       -3.41484882147230       -0.07251141275815
N           11.34156849932606       -3.98328268363387       -0.08830126179444
C            7.91074347861002       -3.42829049458612       -0.06747998643672
C            6.72859905652838       -2.73238382566975       -0.04855960470902
C            6.71650078016753       -1.33337985701205       -0.01518703129462
C            5.44732960757562       -0.64071268636294        0.00319315099927
N            4.33281376191056       -1.35057289223065       -0.01232665359228
C            3.16884651809283       -0.69058191300288        0.00525234424658
C            1.95385898903408       -1.40374645602804        0.01021129249430
C            0.75437051923486       -0.74137278476664        0.03457272453675
C           -0.51633637652139       -1.47498930678695        0.10755108459889
C           -0.80925606276438       -2.50920052792163       -0.77716665650813
C           -2.04836316480900       -3.11642450688995       -0.77166530467920
C           -3.02729853063164       -2.71005330508705        0.13547739156411
N           -4.31657990941549       -3.24094689992849        0.10462701698673
C           -4.53182244275078       -4.59062281219159       -0.18748909295908
C           -5.65509154245578       -4.98995567557585       -0.91122856265693
C           -5.86354446923492       -6.32669705480293       -1.18943138856789
C           -4.95732781621161       -7.28326160580028       -0.76199147804698
C           -3.83803855857168       -6.89116142987752       -0.04620071795980
C           -3.62495994575937       -5.55806709981883        0.24525345503213
C           -5.39857716318810       -2.37936452412684        0.33834711992935
C           -5.37836024228119       -1.08030697993241       -0.16923059085421
C           -6.43405924362142       -0.22335555607330        0.06958941761801
C           -7.52307914493346       -0.64395358084466        0.81501838838214
C           -7.55107367004112       -1.93549903055362        1.31500181563820
C           -6.49920725866154       -2.80102663569112        1.08166990243333
C           -2.70706286225302       -1.72827630463981        1.07592412696253
C           -1.47454159975102       -1.11905241381565        1.05716530214674
C            0.72599498022882        0.68896616998794        0.01558379712980
C           -0.57325240564900        1.37942901561591       -0.05818830911799
C           -0.94729047134019        2.30942544296912        0.90726983257620
C           -2.20183941333178        2.88252822037792        0.88266463677318
C           -3.10526856486951        2.56207231817020       -0.13043731472123
N           -4.39087656058357        3.11453235180326       -0.12582483897331
C           -5.09680980000041        3.16295259656802        1.08342945591748
C           -5.91717666366224        4.24753079797921        1.38918302038036
C           -6.62115697067143        4.27122491007027        2.57768143829364
C           -6.51398970137092        3.22420107156419        3.47844356292597
C           -5.69128081135291        2.14949251015801        3.18316146969650
C           -4.98647663053741        2.11414690407645        1.99631136463404
C           -4.96879245538783        3.56331752931027       -1.31561706328032
C           -6.34574500757172        3.47630890898755       -1.52356937969973
C           -6.90246241379526        3.92461129233794       -2.70543522994828
C           -6.10273657799527        4.45990057979662       -3.70143663673347
C           -4.73486128707351        4.54826366808530       -3.50156219829768
C           -4.16932302696518        4.10955361538459       -2.32065826292640
C           -2.71107444446112        1.67478729489633       -1.13204975134130
C           -1.46694823157861        1.08440081460974       -1.08607148134194
C            1.89520491650874        1.40087450308069        0.03744182712119
C            3.13976963961897        0.73874301805340        0.03878063673870
N            4.27472122122814        1.44623201276428        0.05441576171790
C            5.41805342869293        0.78315725959220        0.03746806351801
H            7.73451407187015        4.74905465802563        0.12918424832853
H            5.64089123706014        3.39580112544293        0.09938290892635
H           10.03302227463879        1.15976291519070        0.04121901440446
H           10.07408870417764       -0.82615342108998       -0.00934715604048
H            7.92580099735149       -4.50741309460022       -0.09326631144088
H            5.77802001845294       -3.24175312418595       -0.05877533582404
H            1.99469319502467       -2.48226778622336        0.02541429339987
H           -0.07230396335023       -2.80576058316266       -1.50945873693414
H           -2.27656136985246       -3.89063109195792       -1.48927822249980
H           -6.35775547724444       -4.24546329124700       -1.25580032900164
H           -6.73664452292393       -6.62243054295338       -1.75227153861549
H           -5.12233317990079       -8.32635821521220       -0.98455695826248
H           -3.12889207713726       -7.63027396470759        0.29647233422834
H           -2.75819445710187       -5.25639947232081        0.81507326423446
H           -4.52952311192136       -0.74994504258473       -0.75046904282323
H           -6.40829751591256        0.77539082214692       -0.33802882349454
H           -8.34409816268692        0.03059828327283        1.00435572261416
H           -8.39568416094647       -2.27113653011733        1.89852577993947
H           -6.51946267916180       -3.80597715817819        1.47741508769085
H           -3.44324493439970       -1.44308684473934        1.81302619899841
H           -1.24162642043132       -0.36663930482541        1.79531949913466
H           -0.25685845828979        2.55976009658913        1.69989387151129
H           -2.49689775126915        3.58046967322339        1.65247322597535
H           -5.99607934299609        5.06817526191195        0.69115391743086
H           -7.25313182846259        5.11724291408130        2.80448196426870
H           -7.06726628620389        3.24653825421911        4.40493751714494
H           -5.60541001808038        1.32642949572395        3.87717304656579
H           -4.35405309002841        1.27060517178514        1.76105735832180
H           -6.97861990957125        3.05831714487422       -0.75419751182037
H           -7.96992359881307        3.84785302020534       -2.85134929155913
H           -6.54178877887076        4.80699707484171       -4.62419146000159
H           -4.10239055934444        4.97115575850614       -4.26822376688021
H           -3.10356061005537        4.19203145469531       -2.16513308345545
H           -3.39603813232721        1.44012442778061       -1.93381554643094
H           -1.18050947161704        0.38077283076103       -1.85397314335103
H            1.88982627255360        2.48031753054083        0.02590656350934
