  100
       -160.02556206
 N         11.1502809791        4.1795003720       -0.3458994370
 C         10.1718077825        3.5820516206       -0.2997989070
 C          8.9655842716        2.8515042723       -0.2456501005
 C          7.7343503136        3.5302890493       -0.3121066662
 C          6.5741042070        2.8106768399       -0.2556342715
 C          6.5922787122        1.4090823451       -0.1326039333
 C          7.8275743241        0.7166432135       -0.0673889843
 C          9.0023916026        1.4712465714       -0.1263582223
 C          7.8280382086       -0.7232956448        0.0574293480
 C          9.0035454649       -1.4765858333        0.1186440568
 C          8.9680611332       -2.8566476609        0.2400373629
 C         10.1751343055       -3.5853501256        0.3008247615
 N         11.1528895659       -4.1849237098        0.3394620035
 C          7.7374560404       -3.5367702189        0.3046388375
 C          6.5765142762       -2.8185038517        0.2453199330
 C          6.5933429260       -1.4169527451        0.1217709211
 C          5.3510994546       -0.7155198743        0.0607486046
 N          4.1982010484       -1.3606417336        0.1226906498
 C          3.0299543294       -0.7246914693        0.0627687126
 C          1.8081667261       -1.3853187673        0.1277148845
 C          0.5960854338       -0.7064929219        0.0661364031
 C         -0.6531434741       -1.4752037208        0.1368177302
 C         -0.7974201040       -2.6293945081       -0.6334242788
 C         -1.9922464848       -3.3160572074       -0.6689494070
 C         -3.0859716138       -2.8533311874        0.0599842338
 N         -4.3343030940       -3.4870911197       -0.0471413389
 C         -4.3925882311       -4.8813658306       -0.0032214260
 C         -5.2892767677       -5.5966697071       -0.7979734321
 C         -5.3254141374       -6.9757037192       -0.7344814888
 C         -4.4680045130       -7.6644086485        0.1083953942
 C         -3.5671229849       -6.9596532973        0.8903918797
 C         -3.5273829301       -5.5804868643        0.8403251012
 C         -5.4579504708       -2.7159981115       -0.3470817021
 C         -5.3312434220       -1.5576114738       -1.1169700723
 C         -6.4484701584       -0.8221087835       -1.4559971100
 C         -7.7066073738       -1.2219297035       -1.0360354324
 C         -7.8351378497       -2.3525225938       -0.2457872471
 C         -6.7235425665       -3.0935656108        0.1039568352
 C         -2.9317765877       -1.7388071281        0.8835454162
 C         -1.7274297279       -1.0709154709        0.9323345521
 C          0.5962902561        0.6955623430       -0.0745129607
 C         -0.6518590727        1.4665482745       -0.1414393077
 C         -0.7950405624        2.6125591766        0.6409820161
 C         -1.9880156457        3.3017802783        0.6809328747
 C         -3.0806941236        2.8518415594       -0.0580525638
 N         -4.3248104524        3.4913672459        0.0501097158
 C         -5.4622026289        2.7244952882        0.3063240166
 C         -5.3635976770        1.5404416890        1.0402662177
 C         -6.4958340786        0.8093000530        1.3360859545
 C         -7.7412303306        1.2392095090        0.9077833302
 C         -7.8417742670        2.3968380438        0.1534656303
 C         -6.7148901785        3.1341264962       -0.1525201088
 C         -4.3710734271        4.8875847441        0.0544744664
 C         -5.2621977522        5.5811617971        0.8741046046
 C         -5.2851462560        6.9619483621        0.8618760915
 C         -4.4203206728        7.6730028573        0.0455392128
 C         -3.5260234961        6.9892102226       -0.7622240125
 C         -3.4992710822        5.6087451457       -0.7630239390
 C         -2.9269982813        1.7453960162       -0.8930430321
 C         -1.7250688222        1.0732113996       -0.9436118915
 C          1.8078686885        1.3745802133       -0.1377527158
 C          3.0298427015        0.7141808895       -0.0741053044
 N          4.1974313375        1.3508266263       -0.1343314185
 C          5.3507813843        0.7064576708       -0.0724153169
 H          7.7230846226        4.6057485728       -0.4056520426
 H          5.6123534505        3.2979201609       -0.3031116798
 H          9.9685892125        0.9938287431       -0.0775099616
 H          9.9693093142       -0.9978926075        0.0730578674
 H          7.7272065320       -4.6121362100        0.3993120955
 H          5.6152478286       -3.3067286797        0.2919000498
 H          1.8222295951       -2.4564197389        0.2594108257
 H          0.0261315533       -2.9635636953       -1.2468090798
 H         -2.1003400099       -4.1945738897       -1.2882053837
 H         -5.9457019511       -5.0662313426       -1.4718116198
 H         -6.0219344412       -7.5174788963       -1.3570599386
 H         -4.4987646183       -8.7422399541        0.1520497405
 H         -2.8937443765       -7.4877013602        1.5492118541
 H         -2.8307098955       -5.0317067303        1.4570055507
 H         -4.3535628983       -1.2549421641       -1.4616780276
 H         -6.3413127919        0.0649668607       -2.0625641685
 H         -8.5782801441       -0.6539942999       -1.3212641363
 H         -8.8096301090       -2.6608566017        0.1033255520
 H         -6.8262766654       -3.9711041793        0.7252820222
 H         -3.7694278533       -1.4041130020        1.4775318778
 H         -1.6120932320       -0.2257611049        1.5942008080
 H          0.0280069027        2.9376783649        1.2599275768
 H         -2.0952784745        4.1729309931        1.3106064205
 H         -4.3959195800        1.2139465630        1.3912858337
 H         -6.4106632690       -0.0985515749        1.9147394986
 H         -8.6250010453        0.6740611854        1.1595396432
 H         -8.8062371218        2.7302372062       -0.2004820784
 H         -6.7958187567        4.0345377441       -0.7435570525
 H         -5.9247133026        5.0318776913        1.5266523453
 H         -5.9777039539        7.4869801349        1.5029301756
 H         -4.4417003220        8.7519324220        0.0407553233
 H         -2.8490599505        7.5348682873       -1.4026190709
 H         -2.8077878333        5.0762229269       -1.3994471847
 H         -3.7634492398        1.4192282014       -1.4934443413
 H         -1.6108929416        0.2324639453       -1.6113922145
 H          1.8212800226        2.4457986019       -0.2686511867
