  96
       -153.23858742
 N         -1.8122431427        6.2885294998       -1.0242100164
 C         -2.2549746883        5.2428476109       -0.8513393606
 C         -2.8064741484        3.9615973772       -0.6566613798
 C         -3.7543017032        3.4871898907       -1.5480647711
 C         -4.2793581851        2.2084409250       -1.3973084341
 C         -3.8851282737        1.4074012623       -0.3429559195
 N         -4.3524515614        0.0834866978       -0.2672081139
 C         -3.5482633314       -1.0394868443       -0.3628452968
 C         -2.1074420280       -0.9949407224       -0.4738682366
 C         -1.4251506989        0.0019233109       -1.1785002052
 C         -0.0536926630        0.0712466680       -1.1363642941
 C          0.7008691647       -0.8657258402       -0.4149227125
 C          2.1424619712       -0.7379343633       -0.3123969257
 C          2.7079130955        0.4965963126        0.1363821052
 C          1.9096296029        1.5563936260        0.5845947974
 C          2.4653327522        2.7430304779        1.0424914107
 C          3.8384923262        2.8795287358        1.1188007506
 C          4.6579410272        1.8260423341        0.7421507927
 C          4.1242268707        0.6336992811        0.2355923665
 C          4.9541129418       -0.4779538478       -0.0853211704
 N          6.3393121278       -0.3460579440        0.0174636168
 C          7.1650206060       -1.0749998685        0.8513621519
 C          6.8291001503       -2.0358299641        1.7949475190
 C          7.8536312116       -2.5949564847        2.5345302977
 C          9.1785617181       -2.2056430760        2.3503042555
 C          9.5151246933       -1.2342063429        1.4259831702
 C          8.5040388418       -0.6593132323        0.6700005631
 C          8.4785568948        0.3658702391       -0.3392862883
 C          9.4608145770        1.1249088200       -0.9585140770
 C          9.0809041868        2.0305272594       -1.9315290548
 C          7.7444869603        2.1746110790       -2.2977017687
 C          6.7486236056        1.4285066875       -1.6970725815
 C          7.1235657374        0.5324944153       -0.7057936342
 C          4.4028054748       -1.7174067085       -0.5181880544
 C          5.2160294711       -2.7858616376       -0.9178161206
 C          4.6702643374       -3.9590669962       -1.4170963921
 C          3.3011460626       -4.0701787744       -1.5706781744
 C          2.4749264073       -3.0131213336       -1.2149287107
 C          2.9879076931       -1.8388587916       -0.6502937682
 C          0.0129214277       -1.9161619003        0.2115842747
 C         -1.3592988556       -1.9767172674        0.1861338236
 N         -4.2454292198       -2.1480719997       -0.2921846980
 C         -5.5408417514       -1.7709644627       -0.1649220854
 C         -6.6906219253       -2.6055634022       -0.0959978672
 C         -6.5790705954       -3.9978077864       -0.1719612875
 C         -7.7027313638       -4.7856039905       -0.1380053252
 C         -8.9554148218       -4.1853160433       -0.0319243397
 C         -9.0758462370       -2.8169840772        0.0495690863
 C         -7.9515336807       -1.9784488907        0.0284722157
 C         -8.0425628377       -0.5330725932        0.1518034375
 C         -9.2697276119        0.1112021462        0.3592391622
 C         -9.3601007519        1.4733514183        0.5265649047
 C         -8.2107005897        2.2569658068        0.5135181669
 C         -6.9892374827        1.6666807126        0.3028956678
 C         -6.8788922905        0.2835908401        0.0966445838
 C         -5.6400682371       -0.3768492443       -0.1303734934
 C         -2.9548702379        1.8785261731        0.6241551916
 C         -2.5713884437        1.1159596356        1.7459031571
 C         -1.6334391035        1.5878412561        2.6240301591
 C         -1.0465510636        2.8437885456        2.4284921891
 C         -1.4239306866        3.6239266185        1.3677771401
 C         -2.3868696543        3.1670853118        0.4481951045
 H         -4.0685306190        4.1046081318       -2.3762820670
 H         -4.9925537315        1.8287085771       -2.1144777920
 H         -1.9703053319        0.7137197144       -1.7795371217
 H          0.4607028983        0.8391444873       -1.6956933605
 H          0.8361128333        1.4475346761        0.5970894697
 H          1.8164047827        3.5490330454        1.3490893982
 H          4.2794707183        3.7942132504        1.4850367999
 H          5.7265345928        1.9304042925        0.8507567752
 H          5.8027625400       -2.3361754423        1.9414165937
 H          7.6221505589       -3.3482919580        3.2725740277
 H          9.9515784980       -2.6678208029        2.9457692553
 H         10.5406371947       -0.9235356288        1.2957494389
 H         10.4985920669        1.0045738879       -0.6870353928
 H          9.8299885253        2.6333147130       -2.4226309950
 H          7.4811836997        2.8830597494       -3.0687049253
 H          5.7142332553        1.5394478509       -1.9844975338
 H          6.2892596117       -2.6975132974       -0.8482021554
 H          5.3215975193       -4.7720025529       -1.7003357887
 H          2.8686923395       -4.9697399105       -1.9820366761
 H          1.4152604058       -3.0913167296       -1.4011414434
 H          0.5730376977       -2.6484063804        0.7745270254
 H         -1.8880097017       -2.7628962930        0.7023740111
 H         -5.5906046604       -4.4202457080       -0.2643095417
 H         -7.6220640179       -5.8608121291       -0.1978771904
 H         -9.8436240324       -4.8002012441       -0.0129348117
 H        -10.0666189680       -2.3984334071        0.1279407832
 H        -10.1785743167       -0.4668930267        0.4010828313
 H        -10.3243732686        1.9336179965        0.6834828933
 H         -8.2769741052        3.3229917698        0.6721977316
 H         -6.0983021839        2.2743775424        0.3144496999
 H         -3.0280165846        0.1518663760        1.9125631959
 H         -1.3429126048        0.9908644136        3.4752907157
 H         -0.3022091182        3.1966838455        3.1263823608
 H         -0.9914678393        4.6028447810        1.2184649848
