  95
  -149.783560230000       0.501666650701434      !
 O         -6.9427820338        2.4667717797        1.0492035644
 C         -6.3222286172        1.4972613086        0.6265135911
 C         -4.8727894042        1.4068340489        0.5593787155
 C         -4.1129063391        2.5152273998        0.9822076304
 C         -2.7525138860        2.5118461405        0.8375342661
 C         -2.0686663226        1.3983000700        0.3170491844
 C         -0.6667848605        1.5714181364       -0.0455750615
 C         -0.1913256500        1.1506964821       -1.2924343689
 C          1.1193059722        1.3431640237       -1.6602171758
 C          2.0217500435        1.9559441213       -0.7841201298
 N          3.3671831788        2.1028732081       -1.1199937091
 C          4.0297619282        1.1530769778       -1.9012582002
 C          5.0630964961        1.5479538305       -2.7536526936
 C          5.7400848136        0.6113615328       -3.5092346141
 C          5.3995416061       -0.7299853132       -3.4362132857
 C          4.3675870467       -1.1260648954       -2.6012486581
 C          3.6874950606       -0.1980908865       -1.8376604299
 C          4.0941010798        3.1863295908       -0.6050288989
 C          3.5356346835        4.4637844231       -0.5833060679
 C          4.2523881672        5.5252149105       -0.0655425556
 C          5.5308920163        5.3310277968        0.4326734386
 C          6.0903659539        4.0633712120        0.4109975317
 C          5.3806539855        2.9949947572       -0.1015363028
 C          1.5447050475        2.4127157923        0.4479314173
 C          0.2264809868        2.2320719852        0.8011165462
 C         -2.7894923887        0.2066483681        0.0513887347
 C         -2.1653442633       -1.0378684421       -0.2533175152
 C         -0.7862183383       -1.3271161222        0.0849092577
 C         -0.2401865535       -0.9154184751        1.3105986591
 C          1.0523248108       -1.2191335412        1.6578880682
 C          1.8771895044       -1.9391386520        0.7829591971
 N          3.2056184171       -2.2036396669        1.0951490108
 C          3.9684675293       -1.3182318569        1.8620252746
 C          4.9710954994       -1.8082805697        2.7013828713
 C          5.7468941431       -0.9378994877        3.4411394280
 C          5.5366547127        0.4298179254        3.3640587575
 C          4.5365869176        0.9205962383        2.5405026981
 C          3.7585579975        0.0592364845        1.7925110832
 C          3.8242292046       -3.3518844444        0.5759154414
 C          3.1598783368       -4.5775680659        0.5900757607
 C          3.7711375784       -5.7027137525        0.0713612966
 C          5.0471814342       -5.6229315730       -0.4632998006
 C          5.7112660749       -4.4066014848       -0.4772678078
 C          5.1079135961       -3.2752439478        0.0366166471
 C          1.3299257911       -2.3839245348       -0.4267046040
 C          0.0279994255       -2.0949602967       -0.7581892117
 C         -2.9461451522       -2.0923050421       -0.7825255760
 C         -4.3042716084       -2.0129005680       -0.8602640694
 C         -4.9649784485       -0.8577755594       -0.3763536234
 C         -4.2125402170        0.2560814887        0.0829713689
 C         -6.3658388037       -0.7684062715       -0.3464546724
 N         -7.2386306042       -1.6937422526       -0.7414039254
 C         -8.4604703606       -1.1681111375       -0.5076621944
 C         -9.7285865041       -1.7126268313       -0.7363295317
 C        -10.8237818623       -0.9496220027       -0.4019522959
 C        -10.6900620356        0.3289870418        0.1498760037
 C         -9.4472762488        0.8930685226        0.3876383624
 C         -8.3426340168        0.1367459971        0.0548930722
 N         -6.9848761031        0.3719840944        0.1485480957
 H         -4.6401113804        3.3714284887        1.3718326047
 H         -2.1865027797        3.3997657981        1.0779072791
 H         -0.8765725736        0.6871524876       -1.9858750649
 H          1.4583291978        1.0306282391       -2.6366045246
 H          5.3252755756        2.5934180521       -2.8221936016
 H          6.5350768558        0.9325688882       -4.1654678546
 H          5.9310575563       -1.4596466607       -4.0273897899
 H          4.0969955636       -2.1699098536       -2.5359365798
 H          2.8869588245       -0.5147084563       -1.1890501548
 H          2.5418333515        4.6138480592       -0.9789257678
 H          3.8124448676        6.5111750975       -0.0574228903
 H          6.0877745886        6.1629932409        0.8353107329
 H          7.0832057183        3.9027251527        0.8038567128
 H          5.8099145300        2.0039051213       -0.1066481238
 H          2.2218630395        2.8971426846        1.1354857238
 H         -0.1089699147        2.5685317749        1.7707842318
 H         -0.8659322939       -0.3779793065        2.0063371302
 H          1.4382776391       -0.9169924014        2.6199713693
 H          5.1314486850       -2.8739334367        2.7732345851
 H          6.5168639479       -1.3311560693        4.0878536018
 H          6.1452542195        1.1072593229        3.9428442796
 H          4.3694995181        1.9854620350        2.4703357952
 H          2.9868095749        0.4485729500        1.1489267314
 H          2.1687088442       -4.6378548679        1.0151906038
 H          3.2504508918       -6.6482490996        0.0911893614
 H          5.5214025927       -6.5042165483       -0.8667537329
 H          6.7028142009       -4.3355408765       -0.8985555445
 H          5.6177448311       -2.3233713029        0.0144773480
 H          1.9469162136       -2.9404606445       -1.1163366411
 H         -0.3527514955       -2.4176397062       -1.7154463727
 H         -2.4470709032       -3.0066052803       -1.0675262379
 H         -4.9087929218       -2.8201121966       -1.2387484467
 H         -9.8259069828       -2.6985849525       -1.1611637820
 H        -11.8161762334       -1.3427641660       -0.5671728158
 H        -11.5787074188        0.8902874887        0.3964384843
 H         -9.3346028142        1.8770973660        0.8120213184
  95
  -149.783553930000       0.498333349298566      !
 O         -6.9389955234        2.4985490316        0.9925332996
 C         -6.3213753793        1.5163475961        0.5953363420
 C         -4.8722191788        1.4178795785        0.5356292940
 C         -4.1096994570        2.5323187990        0.9371057932
 C         -2.7487914492        2.5198150645        0.7987220896
 C         -2.0676397612        1.3934881407        0.3030875849
 C         -0.6624596016        1.5573340855       -0.0523145794
 C         -0.1798724299        1.1281131449       -1.2932815715
 C          1.1325586010        1.3208011735       -1.6555303178
 C          2.0283088724        1.9421567052       -0.7790974929
 N          3.3741777425        2.1024482766       -1.1095683359
 C          4.0571732204        1.1573813126       -1.8766453654
 C          3.7187480946       -0.1955709422       -1.8239458909
 C          4.4179887103       -1.1189615791       -2.5756387963
 C          5.4673566507       -0.7179274873       -3.3862211075
 C          5.8048935723        0.6246645185       -3.4479541749
 C          5.1075712515        1.5571322211       -2.7060993948
 C          4.0719085155        3.2131309868       -0.6105297707
 C          5.3541249689        3.0629514109       -0.0829802245
 C          6.0318930246        4.1599643339        0.4127993884
 C          5.4443274422        5.4149235395        0.3939493936
 C          4.1692267674        5.5677531056       -0.1270050857
 C          3.4844860353        4.4776538448       -0.6284459507
 C          1.5453846182        2.4019215565        0.4494489717
 C          0.2257466358        2.2217173485        0.7967156362
 C         -2.7918895213        0.1999213316        0.0563644179
 C         -2.1713307823       -1.0507153531       -0.2287174797
 C         -0.7881481887       -1.3351529528        0.0990596120
 C         -0.2310824396       -0.9181398752        1.3175776534
 C          1.0640930714       -1.2224759767        1.6549104007
 C          1.8806272551       -1.9469845197        0.7758137945
 N          3.2084743139       -2.2194565143        1.0818983431
 C          3.9768309725       -1.3464702959        1.8582112068
 C          4.9650942827       -1.8543840654        2.7038450818
 C          5.7481439558       -0.9983191571        3.4524937401
 C          5.5592896843        0.3726477873        3.3774087932
 C          4.5730478170        0.8811276492        2.5478056548
 C          3.7873070185        0.0339544386        1.7914461750
 C          3.8222669538       -3.3669821232        0.5555052986
 C          3.1520153440       -4.5896296725        0.5560397432
 C          3.7598043103       -5.7129634066        0.0293391701
 C          5.0383910565       -5.6347262877       -0.4996905535
 C          5.7088894173       -4.4217375678       -0.4989427389
 C          5.1091682260       -3.2922629975        0.0233534579
 C          1.3241108330       -2.3908646323       -0.4300826126
 C          0.0189405939       -2.1036733935       -0.7500712882
 C         -2.9560540451       -2.1153271702       -0.7306295878
 C         -4.3144559658       -2.0356100252       -0.8040187520
 C         -4.9712553001       -0.8671743898       -0.3474236288
 C         -4.2150346469        0.2544578326        0.0862753721
 C         -6.3718696075       -0.7722970877       -0.3214050223
 N         -7.2476900974       -1.7040181614       -0.6946609641
 C         -8.4677924207       -1.1670467453       -0.4788907014
 C         -9.7377787449       -1.7113739132       -0.6977921439
 C        -10.8305535157       -0.9342288782       -0.3889169696
 C        -10.6928250616        0.3583110290        0.1284672004
 C         -9.4482276778        0.9223189653        0.3566020453
 C         -8.3459815943        0.1517785973        0.0493856625
 N         -6.9875341781        0.3830429388        0.1419976248
 H         -4.6350690203        3.3986807135        1.3061378138
 H         -2.1794984127        3.4095993251        1.0240146412
 H         -0.8608177776        0.6590551923       -1.9872210726
 H          1.4768581108        1.0045069948       -2.6288493518
 H          2.9069343563       -0.5180365122       -1.1923893151
 H          4.1488244384       -2.1636211849       -2.5194138059
 H          6.0147087329       -1.4442996849       -3.9666994645
 H          6.6134129510        0.9504999138       -4.0851806931
 H          5.3669709440        2.6035408623       -2.7689084852
 H          5.8061840742        2.0821271070       -0.0589032180
 H          7.0221273752        4.0318441160        0.8237897855
 H          5.9765470011        6.2690855598        0.7834663066
 H          3.7074633751        6.5434292110       -0.1509706030
 H          2.4932851955        4.5949777244       -1.0414928579
 H          2.2192104980        2.8897448735        1.1380198241
 H         -0.1159738641        2.5627740984        1.7625709047
 H         -0.8500683422       -0.3766487846        2.0162375527
 H          1.4583914956       -0.9179852309        2.6128169192
 H          5.1078526015       -2.9226712631        2.7732906002
 H          6.5066915022       -1.4051656111        4.1042815695
 H          6.1734665272        1.0390046871        3.9630340834
 H          4.4227402890        1.9486326899        2.4792720121
 H          3.0254371696        0.4363415120        1.1440310404
 H          2.1592329078       -4.6496150256        0.9777361332
 H          3.2341108494       -6.6558918531        0.0377622714
 H          5.5093900636       -6.5143036316       -0.9106095504
 H          6.7027253155       -4.3516336412       -0.9148447464
 H          5.6241008342       -2.3429110748        0.0123182268
 H          1.9355081407       -2.9472552021       -1.1247211025
 H         -0.3718345183       -2.4306119556       -1.7018171496
 H         -2.4590945470       -3.0364300740       -0.9971044273
 H         -4.9219730928       -2.8508088157       -1.1601792934
 H         -9.8384551227       -2.7079136196       -1.0962409503
 H        -11.8241634987       -1.3271010892       -0.5473845010
 H        -11.5797304392        0.9305974429        0.3553041316
 H         -9.3323654928        1.9168460854        0.7547764333
