  95
  -149.192636194900        1.00000000000000      !
 O         -6.9427820338        2.4667717797        1.0492035644
 C         -6.3222286172        1.4972613086        0.6265135911
 C         -4.8727894042        1.4068340489        0.5593787155
 C         -4.1129063391        2.5152273998        0.9822076304
 C         -2.7525138860        2.5118461405        0.8375342661
 C         -2.0686663226        1.3983000700        0.3170491844
 C         -0.6667848605        1.5714181364       -0.0455750615
 C         -0.1913256500        1.1506964821       -1.2924343689
 C          1.1193059722        1.3431640237       -1.6602171758
 C          2.0217500435        1.9559441213       -0.7841201298
 N          3.3671831788        2.1028732081       -1.1199937091
 C          4.0297619282        1.1530769778       -1.9012582002
 C          5.0630964961        1.5479538305       -2.7536526936
 C          5.7400848136        0.6113615328       -3.5092346141
 C          5.3995416061       -0.7299853132       -3.4362132857
 C          4.3675870467       -1.1260648954       -2.6012486581
 C          3.6874950606       -0.1980908865       -1.8376604299
 C          4.0941010798        3.1863295908       -0.6050288989
 C          3.5356346835        4.4637844231       -0.5833060679
 C          4.2523881672        5.5252149105       -0.0655425556
 C          5.5308920163        5.3310277968        0.4326734386
 C          6.0903659539        4.0633712120        0.4109975317
 C          5.3806539855        2.9949947572       -0.1015363028
 C          1.5447050475        2.4127157923        0.4479314173
 C          0.2264809868        2.2320719852        0.8011165462
 C         -2.7894923887        0.2066483681        0.0513887347
 C         -2.1653442633       -1.0378684421       -0.2533175152
 C         -0.7862183383       -1.3271161222        0.0849092577
 C         -0.2401865535       -0.9154184751        1.3105986591
 C          1.0523248108       -1.2191335412        1.6578880682
 C          1.8771895044       -1.9391386520        0.7829591971
 N          3.2056184171       -2.2036396669        1.0951490108
 C          3.9684675293       -1.3182318569        1.8620252746
 C          4.9710954994       -1.8082805697        2.7013828713
 C          5.7468941431       -0.9378994877        3.4411394280
 C          5.5366547127        0.4298179254        3.3640587575
 C          4.5365869176        0.9205962383        2.5405026981
 C          3.7585579975        0.0592364845        1.7925110832
 C          3.8242292046       -3.3518844444        0.5759154414
 C          3.1598783368       -4.5775680659        0.5900757607
 C          3.7711375784       -5.7027137525        0.0713612966
 C          5.0471814342       -5.6229315730       -0.4632998006
 C          5.7112660749       -4.4066014848       -0.4772678078
 C          5.1079135961       -3.2752439478        0.0366166471
 C          1.3299257911       -2.3839245348       -0.4267046040
 C          0.0279994255       -2.0949602967       -0.7581892117
 C         -2.9461451522       -2.0923050421       -0.7825255760
 C         -4.3042716084       -2.0129005680       -0.8602640694
 C         -4.9649784485       -0.8577755594       -0.3763536234
 C         -4.2125402170        0.2560814887        0.0829713689
 C         -6.3658388037       -0.7684062715       -0.3464546724
 N         -7.2386306042       -1.6937422526       -0.7414039254
 C         -8.4604703606       -1.1681111375       -0.5076621944
 C         -9.7285865041       -1.7126268313       -0.7363295317
 C        -10.8237818623       -0.9496220027       -0.4019522959
 C        -10.6900620356        0.3289870418        0.1498760037
 C         -9.4472762488        0.8930685226        0.3876383624
 C         -8.3426340168        0.1367459971        0.0548930722
 N         -6.9848761031        0.3719840944        0.1485480957
 H         -4.6401113804        3.3714284887        1.3718326047
 H         -2.1865027797        3.3997657981        1.0779072791
 H         -0.8765725736        0.6871524876       -1.9858750649
 H          1.4583291978        1.0306282391       -2.6366045246
 H          5.3252755756        2.5934180521       -2.8221936016
 H          6.5350768558        0.9325688882       -4.1654678546
 H          5.9310575563       -1.4596466607       -4.0273897899
 H          4.0969955636       -2.1699098536       -2.5359365798
 H          2.8869588245       -0.5147084563       -1.1890501548
 H          2.5418333515        4.6138480592       -0.9789257678
 H          3.8124448676        6.5111750975       -0.0574228903
 H          6.0877745886        6.1629932409        0.8353107329
 H          7.0832057183        3.9027251527        0.8038567128
 H          5.8099145300        2.0039051213       -0.1066481238
 H          2.2218630395        2.8971426846        1.1354857238
 H         -0.1089699147        2.5685317749        1.7707842318
 H         -0.8659322939       -0.3779793065        2.0063371302
 H          1.4382776391       -0.9169924014        2.6199713693
 H          5.1314486850       -2.8739334367        2.7732345851
 H          6.5168639479       -1.3311560693        4.0878536018
 H          6.1452542195        1.1072593229        3.9428442796
 H          4.3694995181        1.9854620350        2.4703357952
 H          2.9868095749        0.4485729500        1.1489267314
 H          2.1687088442       -4.6378548679        1.0151906038
 H          3.2504508918       -6.6482490996        0.0911893614
 H          5.5214025927       -6.5042165483       -0.8667537329
 H          6.7028142009       -4.3355408765       -0.8985555445
 H          5.6177448311       -2.3233713029        0.0144773480
 H          1.9469162136       -2.9404606445       -1.1163366411
 H         -0.3527514955       -2.4176397062       -1.7154463727
 H         -2.4470709032       -3.0066052803       -1.0675262379
 H         -4.9087929218       -2.8201121966       -1.2387484467
 H         -9.8259069828       -2.6985849525       -1.1611637820
 H        -11.8161762334       -1.3427641660       -0.5671728158
 H        -11.5787074188        0.8902874887        0.3964384843
 H         -9.3346028142        1.8770973660        0.8120213184
