  92
  -137.651220305700       0.747516534019650      !
 C          6.6356647039       -2.5653113076       -0.5195458929
 C          5.6479099882       -1.4338544901       -0.1816470166
 C          6.4117484971       -0.1420788077        0.1619857868
 C          4.7754675485       -1.1728467322       -1.3942668210
 C          5.3634359984       -0.7835028011       -2.5899224648
 C          4.6192926434       -0.5445283893       -3.7303348342
 C          3.2462653447       -0.7063963988       -3.6880640293
 C          2.6378614930       -1.0956299987       -2.5138004628
 C          3.3860762367       -1.3202909227       -1.3547715342
 N          2.7448123033       -1.7309214215       -0.1975188162
 C          1.3304445130       -1.6883387913       -0.1671173485
 C          0.5689109471       -2.8261109792       -0.2414610369
 C         -0.8330114491       -2.7577363803       -0.2220107763
 C         -1.4834238244       -1.5538765958       -0.1294580371
 N         -2.8979233015       -1.4846297554       -0.1357190230
 C         -3.5396057337       -1.1644551998       -1.3195787401
 C         -2.7888740408       -0.9537358488       -2.4794460928
 C         -3.4016313213       -0.6553535159       -3.6779345733
 C         -4.7805950718       -0.5732413595       -3.7436401395
 C         -5.5259820373       -0.7903918302       -2.5994027312
 C         -4.9344125214       -1.0825970277       -1.3783284888
 C         -5.8079605081       -1.3240064024       -0.1617254560
 C         -6.6926570399       -2.5550819693       -0.4305531643
 C         -6.6830439161       -0.0799788729        0.0759454725
 C         -4.9838294833       -1.5821297876        1.0853572848
 C         -5.6231640409       -1.7730254592        2.3021890427
 C         -4.9220992908       -1.9977239256        3.4728731552
 C         -3.5397883201       -2.0271794928        3.4385953578
 C         -2.8796414001       -1.8490929422        2.2410980769
 C         -3.5865393673       -1.6361901638        1.0544849500
 C         -0.7290547775       -0.3547123209       -0.0316481182
 N         -1.3547641563        0.8231434239        0.0815854444
 C         -0.6161448218        1.9093642838        0.1923391328
 C         -1.2680069756        3.1922946470        0.3216145439
 C         -2.6641726221        3.2532121284        0.2941836480
 C         -3.3150879723        4.4584742395        0.4166832233
 C         -2.5707830406        5.6228300781        0.5701902020
 C         -1.1936446014        5.5753760767        0.5979975745
 C         -0.5013149261        4.3652263653        0.4743715644
 C          0.9540096768        4.2878027983        0.4914598427
 C          1.7694723840        5.4137367703        0.6551350530
 C          3.1440406840        5.3129353104        0.6542241252
 C          3.7626511199        4.0790158355        0.4853188566
 C          2.9886835547        2.9533339485        0.3282393313
 C          1.5937973310        3.0421758291        0.3347402114
 C          0.8114252551        1.8368107035        0.1887831738
 N          1.4350337606        0.6829054195        0.0620928575
 C          0.6927994230       -0.4247994795       -0.0483255639
 C          3.4361099174       -1.9553110741        0.9817942429
 C          2.7363449507       -2.2977850007        2.1422278161
 C          3.3999081640       -2.5512160939        3.3239879507
 C          4.7794169798       -2.4652589593        3.3707669094
 C          5.4728008916       -2.1101419366        2.2285086775
 C          4.8296286782       -1.8457518634        1.0272313542
 H          6.0875068262       -3.4768737332       -0.7505659934
 H          7.2454177774       -2.3048926086       -1.3801954662
 H          7.2971764303       -2.7661309251        0.3186440512
 H          7.0118885518        0.1898414128       -0.6807022181
 H          5.7055272153        0.6468277007        0.4137367747
 H          7.0718109783       -0.2945469748        1.0113875742
 H          6.4351365246       -0.6623677706       -2.6400979477
 H          5.1082960123       -0.2418915885       -4.6436658706
 H          2.6470524123       -0.5354402320       -4.5700847537
 H          1.5673786552       -1.2335912651       -2.4920596036
 H          1.0553392681       -3.7868180580       -0.3212379203
 H         -1.4115864440       -3.6671482363       -0.2877697699
 H         -1.7128913181       -1.0275543615       -2.4395278235
 H         -2.8000219239       -0.4934349248       -4.5600051925
 H         -5.2732844357       -0.3474125507       -4.6769451022
 H         -6.6019301239       -0.7330923810       -2.6681209631
 H         -6.0675927040       -3.4306806521       -0.5963086041
 H         -7.3101784345       -2.4034158781       -1.3116601304
 H         -7.3448872933       -2.7549849497        0.4153034912
 H         -7.2824781795        0.1477733016       -0.8008299692
 H         -7.3559125393       -0.2315706997        0.9151754865
 H         -6.0505421826        0.7786567856        0.2929303615
 H         -6.7015937886       -1.7481264209        2.3449978759
 H         -5.4515049946       -2.1431611155        4.4020820722
 H         -2.9724806854       -2.1893521065        4.3430319979
 H         -1.8004879424       -1.8698280597        2.2207200122
 H         -3.2059144437        2.3280279463        0.1719422507
 H         -4.3935026769        4.5023726329        0.3933782906
 H         -3.0734267453        6.5738958555        0.6672212326
 H         -0.6518809497        6.5004144949        0.7157670481
 H          1.3278165702        6.3886648953        0.7874641736
 H          3.7436921720        6.2018118877        0.7843524022
 H          4.8399373725        4.0076711084        0.4801790710
 H          3.4288918963        1.9770503710        0.1960953157
 H          1.6593109641       -2.3608682297        2.1164178714
 H          2.8367925072       -2.8146117970        4.2069989893
 H          5.3114040215       -2.6653290250        4.2881815273
 H          6.5484576826       -2.0357572383        2.2817872352
  92
  -137.649079506700       7.758498883571162E-002 !
 C          6.7639274369       -2.3828470446        0.0567166222
 C          5.6844205788       -1.3390843500       -0.2840802985
 C          6.3360212119        0.0099778858       -0.6386892790
 C          4.8960102858       -1.8169854727       -1.4880152994
 C          5.5668682537       -2.0744203721       -2.6760410040
 C          4.9052921127       -2.4590218717       -3.8269308903
 C          3.5266241554       -2.5641492003       -3.8058865582
 C          2.8362109726       -2.3158154818       -2.6384173540
 C          3.5047016140       -1.9667062641       -1.4609097453
 N          2.7915830757       -1.7552939409       -0.2889923838
 C          1.3813650853       -1.7500066972       -0.3148410821
 C          0.6518954730       -2.8974703798       -0.5126076398
 C         -0.7506160096       -2.8803691992       -0.5326553285
 C         -1.4471581638       -1.7126522611       -0.3421670549
 N         -2.8568906986       -1.6531118907       -0.3132871507
 C         -3.4741138655       -0.8139207216       -1.2329747116
 C         -2.7828780614       -0.4541288788       -2.3939400645
 C         -3.3393405284        0.4062862296       -3.3148363428
 C         -4.6127363011        0.9066840528       -3.1060056452
 C         -5.3214824700        0.5043015482       -1.9902519906
 C         -4.7814315798       -0.3610178918       -1.0472167423
 C         -5.6186128648       -0.7935645796        0.1388252733
 C         -6.8872690588       -1.4892573222       -0.3874243258
 C         -5.9921300079        0.4523955625        0.9627109958
 C         -4.8670714129       -1.7538026995        1.0403227488
 C         -5.5072585200       -2.2649988310        2.1616354761
 C         -4.8688427606       -3.1014864899        3.0573273817
 C         -3.5420165754       -3.4266217257        2.8437447671
 C         -2.8842461157       -2.9356947115        1.7357304774
 C         -3.5342959655       -2.1131062602        0.8110535926
 C         -0.7260778415       -0.5019120182       -0.1500079528
 N         -1.3990122584        0.6441631912       -0.0046615456
 C         -0.7117192625        1.7540188781        0.1665493680
 C         -1.4214054710        3.0085487359        0.2484828916
 C         -2.8041805248        3.0229029022        0.0454044252
 C         -3.5034405340        4.2059776809        0.0944823270
 C         -2.8214898174        5.3920465962        0.3435599937
 C         -1.4568758859        5.3893310464        0.5388389534
 C         -0.7164675568        4.2021461308        0.4990993261
 C          0.7276281994        4.1642112675        0.6951279798
 C          1.4717938865        5.3012016558        1.0300367914
 C          2.8382748135        5.2421933209        1.2004926928
 C          3.5187513893        4.0396425381        1.0442655819
 C          2.8149291645        2.9022213222        0.7236294534
 C          1.4290459254        2.9498273324        0.5487233909
 C          0.7132577298        1.7311122159        0.2500228415
 N          1.3862275485        0.6096190625        0.0843370045
 C          0.6962553607       -0.5173122290       -0.1285646623
 C          3.4228940340       -1.3844218029        0.8901050120
 C          2.6788685299       -1.2948579895        2.0705091085
 C          3.2662044777       -0.9033887191        3.2540937921
 C          4.6180968400       -0.6112106949        3.2878099127
 C          5.3671489940       -0.7534360512        2.1353050607
 C          4.7995402159       -1.1500574497        0.9315349018
 H          6.2931038499       -3.3313763729        0.3088608262
 H          7.4312355879       -2.5443955701       -0.7850509548
 H          7.3621261496       -2.0617595025        0.9046453655
 H          7.0035999440       -0.0935707980       -1.4898685809
 H          5.5653986243        0.7353339620       -0.8933313879
 H          6.9085815184        0.3957295023        0.2005562253
 H          6.6402225259       -1.9657008312       -2.7124967070
 H          5.4589313551       -2.6576247030       -4.7317393381
 H          2.9835955690       -2.8367310576       -4.6985873573
 H          1.7598543238       -2.3843234747       -2.6432259289
 H          1.1701486128       -3.8344075283       -0.6547920894
 H         -1.2882674636       -3.8025811424       -0.6961221770
 H         -1.7952202197       -0.8539074155       -2.5691001176
 H         -2.7806707200        0.6816697603       -4.1969373346
 H         -5.0564200018        1.5904686389       -3.8134275093
 H         -6.3234100528        0.8822828778       -1.8516632556
 H         -7.5354904902       -1.7901191436        0.4307332519
 H         -6.6125879082       -2.3778468929       -0.9528690498
 H         -7.4505727901       -0.8286483050       -1.0404386761
 H         -6.5358377997        1.1698438990        0.3539728856
 H         -6.6148813110        0.1841002931        1.8118305004
 H         -5.0891190103        0.9310219835        1.3373258768
 H         -6.5355508041       -1.9975556018        2.3518427634
 H         -5.3977049392       -3.4830133752        3.9172122884
 H         -3.0136129739       -4.0615200062        3.5393355839
 H         -1.8451816394       -3.1863320913        1.5936027164
 H         -3.2946882504        2.0849441873       -0.1629586224
 H         -4.5711148321        4.2153096459       -0.0651907151
 H         -3.3627312730        6.3261999233        0.3784947071
 H         -0.9626756897        6.3315793282        0.7155377675
 H          0.9777678991        6.2499697126        1.1682583097
 H          3.3820447973        6.1386488886        1.4601925961
 H          4.5888824349        3.9991366496        1.1809315845
 H          3.3047225611        1.9470805388        0.6124929902
 H          1.6276719205       -1.5390523260        2.0592099523
 H          2.6675589532       -0.8319429822        4.1499868445
 H          5.0886275596       -0.2928917391        4.2054687265
 H          6.4260239919       -0.5472254558        2.1802427311
  92
  -137.649078949100       7.753922335920374E-002 !
 C          6.8210798534       -1.7992183235       -0.2241246735
 C          5.5486326233       -1.0792409609        0.2586492176
 C          5.9174511874        0.1977114618        1.0356575421
 C          4.7303596220       -0.6956242608       -0.9567041356
 C          5.2975866730        0.0963464956       -1.9473162730
 C          4.6089573461        0.4369889171       -3.0955483620
 C          3.3307103201       -0.0573891306       -3.2896582137
 C          2.7460858904       -0.8407614419       -2.3191034579
 C          3.4142235064       -1.1275763126       -1.1247324637
 N          2.7617726791       -1.8764848464       -0.1514423087
 C          1.3525681611       -1.8673633754       -0.1778412553
 C          0.5958572783       -3.0114381124       -0.2534092268
 C         -0.8068766755       -2.9587625448       -0.2367485192
 C         -1.4739148758       -1.7621965992       -0.1568180662
 N         -2.8836667173       -1.6767491408       -0.1107177773
 C         -3.5197289647       -1.0263900228       -1.1586569554
 C         -2.8328423299       -0.8379516680       -2.3615519737
 C         -3.4236155144       -0.1882636797       -3.4235934536
 C         -4.7238115200        0.2710788241       -3.3110349399
 C         -5.4202854978        0.0465871150       -2.1385581191
 C         -4.8469368232       -0.6040565900       -1.0540934658
 C         -5.6733437723       -0.8533483807        0.1916076504
 C         -6.8949375543       -1.7060033271       -0.1974804783
 C         -6.1270598292        0.5005240749        0.7672944284
 C         -4.8819375756       -1.5857202588        1.2579630351
 C         -5.4961702328       -1.8931333276        2.4646891574
 C         -4.8216716668       -2.5200508379        3.4952439481
 C         -3.4864395068       -2.8395669571        3.3292772536
 C         -2.8535362450       -2.5486681400        2.1394481423
 C         -3.5385438840       -1.9360438859        1.0858810004
 C         -0.7274070560       -0.5533537719       -0.1146276153
 N         -1.3677530005        0.6201441604       -0.0667098909
 C         -0.6464231129        1.7231421101       -0.0552649032
 C         -1.3167916211        3.0020688444       -0.0402926632
 C         -2.7138324864        3.0382461450       -0.0478027160
 C         -3.3823295434        4.2398170581       -0.0331871832
 C         -2.6544507622        5.4245501698       -0.0148890306
 C         -1.2763218864        5.4008388789       -0.0154952322
 C         -0.5659257634        4.1948499888       -0.0290356857
 C          0.8905769614        4.1397429474       -0.0522549329
 C          1.6920181421        5.2874204324       -0.0600604879
 C          3.0669310158        5.2044175480       -0.1110320571
 C          3.6996245442        3.9671993555       -0.1637296862
 C          2.9409310488        2.8205443723       -0.1510127184
 C          1.5466794865        2.8931305291       -0.0859820530
 C          0.7795413315        1.6701678959       -0.0697970406
 N          1.4168077680        0.5170908782       -0.0835386612
 C          0.6933940451       -0.6065732987       -0.1213978727
 C          3.4316410660       -2.3169607443        0.9857734340
 C          2.7630595756       -3.0796063925        1.9477206106
 C          3.4148868433       -3.5538135995        3.0663919267
 C          4.7543053517       -3.2680540105        3.2558701029
 C          5.4103909920       -2.4836130393        2.3266986425
 C          4.7779265088       -1.9937346923        1.1914845506
 H          6.5489117342       -2.6778437852       -0.8060360445
 H          7.4224871350       -1.1463871292       -0.8502531967
 H          7.4333736044       -2.1193247592        0.6137738177
 H          6.4679152547        0.8891495312        0.4030650770
 H          5.0125930834        0.6927553531        1.3834190564
 H          6.5315129715       -0.0390480340        1.9005158679
 H          6.3041582081        0.4655337174       -1.8201535550
 H          5.0721218229        1.0667219544       -3.8396672497
 H          2.7898146733        0.1648582981       -4.1974666401
 H          1.7538485137       -1.2357049536       -2.4793598755
 H          1.0853368565       -3.9704731220       -0.3374119731
 H         -1.3711744289       -3.8781151006       -0.2917634528
 H         -1.8240993364       -1.2096279807       -2.4613221733
 H         -2.8699234854       -0.0465193180       -4.3398836284
 H         -5.1968503820        0.7867296772       -4.1327784690
 H         -6.4413089793        0.3914765110       -2.0720286962
 H         -6.5641146240       -2.6547775865       -0.6159615521
 H         -7.5029694932       -1.1973779857       -0.9403568988
 H         -7.5178543042       -1.9121355178        0.6684039481
 H         -5.2587629451        1.0790090666        1.0772534767
 H         -6.6758370281        1.0731348590        0.0245451788
 H         -6.7698461921        0.3594328001        1.6318931672
 H         -6.5326749036       -1.6306066461        2.6131649331
 H         -5.3302346001       -2.7454462416        4.4200265855
 H         -2.9328265914       -3.3134047737        4.1262587858
 H         -1.8083784333       -2.7908121927        2.0284964790
 H         -3.2408823867        2.0972081290       -0.0739079455
 H         -4.4616776793        4.2646543341       -0.0379799605
 H         -3.1708478698        6.3731766771       -0.0044438117
 H         -0.7479654591        6.3410195587       -0.0076057531
 H          1.2389390910        6.2656019553       -0.0283616009
 H          3.6554371791        6.1101851736       -0.1158437265
 H          4.7763849479        3.9084197040       -0.2150180725
 H          3.3933622070        1.8427803956       -0.2011432760
 H          1.7134246745       -3.2938832010        1.8281820225
 H          2.8719201096       -4.1437425179        3.7897185317
 H          5.2787418744       -3.6367429218        4.1239270928
 H          6.4468198207       -2.2386582776        2.5026529496
  92
  -137.648441394100       3.949312096797168E-002 !
 C          6.8105628790       -1.9678808650       -0.3210683494
 C          5.5952592629       -1.0447433690       -0.5245462843
 C          6.0582282545        0.3974740726       -0.8005700406
 C          4.8011366218       -1.5258855413       -1.7236370235
 C          5.4314445333       -1.6118885715       -2.9579996225
 C          4.7574240057       -1.9857106657       -4.1049987865
 C          3.4042972061       -2.2601941529       -4.0292701977
 C          2.7548346973       -2.1843403083       -2.8153778569
 C          3.4395777545       -1.8403431753       -1.6460689189
 N          2.7700462710       -1.8000688275       -0.4288116307
 C          1.3598656832       -1.8039895891       -0.4040497820
 C          0.6124493920       -2.9205853923       -0.6880964140
 C         -0.7902627352       -2.8800441124       -0.6803180822
 C         -1.4693630777       -1.7223747674       -0.3883423452
 N         -2.8769896194       -1.6370597147       -0.3981278630
 C         -3.5631089664       -1.6430532810       -1.6070805575
 C         -2.9196983987       -2.0475152987       -2.7803474337
 C         -3.5883405528       -2.0902718869       -3.9855354887
 C         -4.9188793820       -1.7197129181       -4.0485147155
 C         -5.5497754343       -1.2861755051       -2.8979612094
 C         -4.9001106194       -1.2338799303       -1.6718492231
 C         -5.6419141038       -0.6828518143       -0.4692084982
 C         -6.9298435345       -1.4980095143       -0.2524735135
 C         -5.9824039305        0.7926048453       -0.7486483873
 C         -4.8066610977       -0.7607328461        0.7922038068
 C         -5.3498779608       -0.3511585053        2.0033372992
 C         -4.6454504636       -0.4377339027        3.1887494519
 C         -3.3726463685       -0.9811693327        3.1807797769
 C         -2.8109177972       -1.3896817712        1.9910935375
 C         -3.4977857408       -1.2457144853        0.7816819415
 C         -0.7293395883       -0.5522708626       -0.0592417515
 N         -1.3767485953        0.5740149067        0.2584391058
 C         -0.6639234681        1.6334177892        0.5842765191
 C         -1.3457973953        2.8464196305        0.9699137285
 C         -2.7421535893        2.8526222453        1.0304009608
 C         -3.4207803386        3.9953850043        1.3832828980
 C         -2.7045113119        5.1494433326        1.6815308891
 C         -1.3268588927        5.1504932685        1.6384869429
 C         -0.6058008763        4.0028943229        1.2883349794
 C          0.8512782766        3.9643897943        1.2659709477
 C          1.6424660811        5.0731726964        1.5888602568
 C          3.0187662344        4.9990884482        1.5902137833
 C          3.6635289821        3.8076703883        1.2759114218
 C          2.9148298311        2.7016632120        0.9488221734
 C          1.5188985215        2.7694846175        0.9303584754
 C          0.7623925072        1.5940802196        0.5683093827
 N          1.4080622392        0.4953107243        0.2333058464
 C          0.6921886107       -0.5930481550       -0.0690666021
 C          3.4262257576       -1.4515130250        0.7450118909
 C          2.7420215716       -1.5449316442        1.9607955525
 C          3.3413491148       -1.1738761523        3.1445821738
 C          4.6491723908       -0.7213589549        3.1404050699
 C          5.3475024649       -0.6870984762        1.9486242108
 C          4.7659325523       -1.0587440130        0.7432155801
 H          6.4730674607       -2.9844492787       -0.1275982289
 H          7.4452636010       -1.9793297616       -1.2025133806
 H          7.4111053973       -1.6400484841        0.5226254114
 H          6.6926321173        0.4390351815       -1.6819788968
 H          5.1935178963        1.0364181519       -0.9706258322
 H          6.6183574468        0.7916605505        0.0432521543
 H          6.4808996268       -1.3711853960       -3.0344075155
 H          5.2796844052       -2.0468573540       -5.0473882185
 H          2.8491474693       -2.5314857070       -4.9148840327
 H          1.6958437534       -2.3834690514       -2.7773629174
 H          1.1114058994       -3.8517195700       -0.9130805094
 H         -1.3443167919       -3.7811869767       -0.8983500458
 H         -1.8769380335       -2.3201423144       -2.7532496113
 H         -3.0652022441       -2.4104692773       -4.8742965517
 H         -5.4562391077       -1.7525912267       -4.9837996929
 H         -6.5794200112       -0.9694800158       -2.9655618469
 H         -6.6789388371       -2.5383865712       -0.0540082716
 H         -7.5692975701       -1.4606778087       -1.1296028299
 H         -7.4952662243       -1.1150344260        0.5921949639
 H         -5.0676547333        1.3543817090       -0.9288734216
 H         -6.6180353999        0.8838230235       -1.6254749657
 H         -6.4993445223        1.2366211041        0.0980864597
 H         -6.3508555837        0.0529565233        2.0267291031
 H         -5.0922424868       -0.1009066280        4.1116702139
 H         -2.8179791032       -1.0899552552        4.1009006751
 H         -1.8236186446       -1.8267959730        1.9918924133
 H         -3.2605511226        1.9346172503        0.8016151455
 H         -4.4993784415        3.9974656700        1.4296630036
 H         -3.2295703028        6.0528695372        1.9552913969
 H         -0.8076080161        6.0629866401        1.8852980982
 H          1.1798728339        6.0127789104        1.8463627208
 H          3.5991804349        5.8741979951        1.8433498150
 H          4.7416716901        3.7529261258        1.2891377680
 H          3.3764833579        1.7569178516        0.7075931763
 H          1.7269656245       -1.9128079583        1.9720625080
 H          2.7884141760       -1.2423185959        4.0696390877
 H          5.1267679928       -0.4146852536        4.0584115723
 H          6.3751887788       -0.3561421267        1.9626289224
  92
  -137.648318756600       3.468655452367327E-002 !
 C          6.8272332625       -1.8599281101       -0.3162680853
 C          5.5742060775       -0.9915679913       -0.5312281942
 C          5.9766749894        0.4645575678       -0.8287273970
 C          4.7990759204       -1.5207508145       -1.7226629643
 C          5.4364378325       -1.6139941252       -2.9528344485
 C          4.7778897228       -2.0295488448       -4.0944390522
 C          3.4324327555       -2.3389967254       -4.0183573486
 C          2.7754905483       -2.2543942221       -2.8090102797
 C          3.4453698852       -1.8679672688       -1.6445256076
 N          2.7692375712       -1.8184619774       -0.4308720777
 C          1.3593193158       -1.8235343116       -0.4089768892
 C          0.6106906584       -2.9402016739       -0.6903080641
 C         -0.7921923009       -2.8987591737       -0.6833214384
 C         -1.4701039574       -1.7404572171       -0.3921511505
 N         -2.8777770573       -1.6512533653       -0.4006488548
 C         -3.5619111730       -1.6413820981       -1.6108962389
 C         -2.9231601790       -2.0534981608       -2.7840374568
 C         -3.5902098635       -2.0814373548       -3.9904400119
 C         -4.9146401889       -1.6894138664       -4.0544680991
 C         -5.5405141274       -1.2492544323       -2.9037901002
 C         -4.8916804927       -1.2099044799       -1.6766941674
 C         -5.6268348751       -0.6502937511       -0.4739855144
 C         -6.9214235860       -1.4542607804       -0.2544275558
 C         -5.9548750214        0.8275196567       -0.7552319450
 C         -4.7914762917       -0.7352500675        0.7868149844
 C         -5.3252216776       -0.3083759296        1.9961748984
 C         -4.6211202160       -0.4019978738        3.1813116153
 C         -3.3598587319       -0.9717300707        3.1753379167
 C         -2.8077511625       -1.3980963344        1.9873809328
 C         -3.4923227865       -1.2455633674        0.7777723543
 C         -0.7290486816       -0.5712265346       -0.0628921751
 N         -1.3767112181        0.5536720431        0.2584960176
 C         -0.6643807745        1.6121004418        0.5878991386
 C         -1.3470215166        2.8210697306        0.9843771598
 C         -2.7425980690        2.8211163462        1.0599504300
 C         -3.4216533848        3.9586290403        1.4283486376
 C         -2.7067284488        5.1135934262        1.7262684945
 C         -1.3296991455        5.1207714971        1.6673353759
 C         -0.6081222543        3.9783940944        1.3017300602
 C          0.8487940924        3.9444675641        1.2664375044
 C          1.6391514148        5.0562610591        1.5805797910
 C          3.0155525585        4.9850032654        1.5758501290
 C          3.6611684798        3.7932760027        1.2647303290
 C          2.9133234062        2.6850477927        0.9434130090
 C          1.5173454190        2.7505510415        0.9288963459
 C          0.7617602177        1.5742778298        0.5676990353
 N          1.4076485951        0.4769060550        0.2281516152
 C          0.6922366455       -0.6118567025       -0.0739751789
 C          3.4181748883       -1.4491417594        0.7410869505
 C          2.7361448679       -1.5559576823        1.9569900625
 C          3.3247014079       -1.1634807259        3.1391454114
 C          4.6191437602       -0.6739996327        3.1325878594
 C          5.3168624270       -0.6263230634        1.9409338388
 C          4.7468750061       -1.0216303592        0.7374290122
 H          6.5329047198       -2.8868814676       -0.1080991115
 H          7.4620631581       -1.8570956913       -1.1975543473
 H          7.4140491589       -1.4953881220        0.5218766067
 H          6.6160246302        0.5177751731       -1.7061318434
 H          5.0867873834        1.0625733287       -1.0167165065
 H          6.5119131348        0.8968220029        0.0129014566
 H          6.4788229285       -1.3449066417       -3.0307751085
 H          5.3059399072       -2.0955097828       -5.0332777172
 H          2.8889528317       -2.6442422773       -4.9002044690
 H          1.7216887734       -2.4792540177       -2.7716901656
 H          1.1085268459       -3.8730965148       -0.9103696634
 H         -1.3467921623       -3.7999101320       -0.8999425672
 H         -1.8852847996       -2.3439554894       -2.7555031668
 H         -3.0709388114       -2.4072045027       -4.8794481666
 H         -5.4506605806       -1.7111969371       -4.9908082082
 H         -6.5652859943       -0.9172025995       -2.9715297666
 H         -6.6790230490       -2.4973330283       -0.0600606449
 H         -7.5638480292       -1.4086486584       -1.1289397433
 H         -7.4793120397       -1.0686988909        0.5940211626
 H         -6.4689237991        1.2767455922        0.0903391493
 H         -5.0355994574        1.3817200111       -0.9353664113
 H         -6.5893477451        0.9233329892       -1.6322910498
 H         -6.3182722741        0.1149756334        2.0184692436
 H         -5.0596714767       -0.0497722391        4.1024760572
 H         -2.8068539554       -1.0873929269        4.0956684316
 H         -1.8295954886       -1.8554370569        1.9892367819
 H         -3.2599700736        1.9024964211        0.8317183534
 H         -4.4996916439        3.9556992911        1.4877450426
 H         -3.2323000953        6.0124980813        2.0135106293
 H         -0.8112244210        6.0332987889        1.9155220038
 H          1.1757530146        5.9962240266        1.8353845272
 H          3.5951940266        5.8623898234        1.8224612964
 H          4.7394039387        3.7401026489        1.2753045657
 H          3.3755681922        1.7404054317        0.7036595697
 H          1.7312206449       -1.9507181446        1.9687510560
 H          2.7740192512       -1.2432901557        4.0645375720
 H          5.0874165584       -0.3489312962        4.0490474712
 H          6.3343296856       -0.2652808870        1.9535352078
  92
  -137.647937843300       2.317957829378977E-002 !
 C          6.8081359720       -1.9173769470       -0.0470668671
 C          5.5766353484       -1.0536092150       -0.3752736694
 C          6.0115730813        0.3596615270       -0.8044296821
 C          4.8178690970       -1.6861626504       -1.5260155307
 C          5.4744320058       -1.8941444918       -2.7318135074
 C          4.8317510445       -2.4092438966       -3.8414545444
 C          3.4839139572       -2.7066573532       -3.7590022697
 C          2.8088847691       -2.5121509367       -2.5724756986
 C          3.4623340293       -2.0227678634       -1.4377317507
 N          2.7675491824       -1.8650882988       -0.2438309319
 C          1.3566730344       -1.8611573922       -0.2511339207
 C          0.6057111373       -2.9977115871       -0.4244623283
 C         -0.7971589301       -2.9487216340       -0.4459590538
 C         -1.4718513169       -1.7646381450       -0.2775219798
 N         -2.8797476956       -1.6741771975       -0.2766060423
 C         -3.4598869723       -0.8409568071       -1.2251568124
 C         -2.7342055956       -0.5102480616       -2.3737106732
 C         -3.2544264677        0.3428940385       -3.3222111119
 C         -4.5235270949        0.8678354610       -3.1520785270
 C         -5.2660966922        0.4943184647       -2.0482950795
 C         -4.7649549301       -0.3669491265       -1.0806114230
 C         -5.6408658279       -0.7752235355        0.0859684421
 C         -6.9168950378       -1.4336653066       -0.4695180135
 C         -5.9970902718        0.4802553607        0.9029949163
 C         -4.9361699846       -1.7541130131        1.0053266971
 C         -5.6212431441       -2.2613585161        2.1015180281
 C         -5.0249248477       -3.1097660990        3.0149968058
 C         -3.6946018128       -3.4478753298        2.8484797513
 C         -2.9919312601       -2.9598277232        1.7670464964
 C         -3.6001788177       -2.1286924000        0.8218047621
 C         -0.7276675116       -0.5662505987       -0.0915695224
 N         -1.3719601553        0.5973684999        0.0476916723
 C         -0.6560394180        1.6906156650        0.2148522267
 C         -1.3288688114        2.9654852221        0.2967866548
 C         -2.7134747557        3.0174420056        0.1136711442
 C         -3.3786129719        4.2201386996        0.1603272174
 C         -2.6600014428        5.3891335036        0.3858110563
 C         -1.2935094024        5.3495796551        0.5624985447
 C         -0.5873549703        4.1416886595        0.5263718828
 C          0.8569973174        4.0674528578        0.7100424058
 C          1.6381934384        5.1862693188        1.0214215039
 C          3.0029739724        5.0867076622        1.1874823858
 C          3.6443799131        3.8601141909        1.0539264171
 C          2.9042509415        2.7404072362        0.7544788154
 C          1.5207049838        2.8311689616        0.5784278474
 C          0.7678616914        1.6329849185        0.2912290358
 N          1.4111469556        0.4952932840        0.1252481880
 C          0.6928608501       -0.6151982509       -0.0734964210
 C          3.3932129499       -1.3698931148        0.8939592413
 C          2.6854862817       -1.3419281987        2.0995848404
 C          3.2502068992       -0.8213396294        3.2433360720
 C          4.5462231169       -0.3369180722        3.2105421295
 C          5.2691361977       -0.4217253302        2.0360202394
 C          4.7226970311       -0.9452613057        0.8711590250
 H          6.4899713770       -2.9143619422        0.2521834224
 H          7.4620153691       -2.0104306101       -0.9093848060
 H          7.3820931848       -1.4827011336        0.7663469734
 H          6.6588234796        0.3178309950       -1.6763470890
 H          5.1355265520        0.9546921752       -1.0560352578
 H          6.5493064187        0.8589492319       -0.0027866147
 H          6.5196472931       -1.6382200616       -2.8163920720
 H          5.3740109647       -2.5617838113       -4.7619272393
 H          2.9526457280       -3.0881565835       -4.6182686132
 H          1.7541476148       -2.7323849994       -2.5305710026
 H          1.1010991785       -3.9497661095       -0.5457503773
 H         -1.3535496567       -3.8616107410       -0.5995625972
 H         -1.7491342488       -0.9280297466       -2.5185065838
 H         -2.6699642448        0.5944115862       -4.1947185682
 H         -4.9380867760        1.5480659034       -3.8802259830
 H         -6.2640616200        0.8919816629       -1.9397292369
 H         -6.6546274871       -2.3219265553       -1.0413193693
 H         -7.4529694046       -0.7517667941       -1.1233617180
 H         -7.5871323887       -1.7278932972        0.3330233153
 H         -5.0914410021        0.9214673964        1.3152434958
 H         -6.4882769251        1.2212099571        0.2778513965
 H         -6.6619666270        0.2313313482        1.7258354387
 H         -6.6515057000       -1.9802187532        2.2583086409
 H         -5.5884532787       -3.4883916282        3.8538618372
 H         -3.1985452563       -4.0905589950        3.5605505214
 H         -1.9502625821       -3.2179861682        1.6624272620
 H         -3.2324366798        2.0913057610       -0.0781900193
 H         -4.4479047590        4.2581049076        0.0165938660
 H         -3.1740124956        6.3385933940        0.4181655980
 H         -0.7700786806        6.2788213274        0.7231306280
 H          1.1756433134        6.1527403898        1.1449273001
 H          3.5761118060        5.9700250080        1.4283909543
 H          4.7127522788        3.7872636257        1.1909933573
 H          3.3623488174        1.7680376615        0.6624241310
 H          1.6788288262       -1.7310763274        2.1335772075
 H          2.6794087486       -0.7972541117        4.1597253984
 H          4.9958943509        0.0872632321        4.0952488939
 H          6.2876827328       -0.0633046510        2.0302905387
