  92
       -138.25137076
 C          6.8530629281       -1.7007458410        0.4150387307
 C          5.6101873859       -0.9330247929       -0.0710404447
 C          6.0215085054        0.4116713701       -0.6981664853
 C          4.9017898177       -1.7538558889       -1.1314489045
 C          5.5984940922       -2.1216608360       -2.2749534891
 C          5.0019080012       -2.8168109039       -3.3096132713
 C          3.6602165015       -3.1380663587       -3.2170022137
 C          2.9459669578       -2.7870257661       -2.0909646716
 C          3.5532299421       -2.1131870931       -1.0273347237
 N          2.8199581511       -1.7980089130        0.1110690663
 C          1.4102577822       -1.8368768205        0.0677741909
 C          0.6937922584       -3.0082404267        0.0497076139
 C         -0.7086356003       -3.0044856609       -0.0142341854
 C         -1.4178148341       -1.8289814084       -0.0440526401
 N         -2.8269750583       -1.7810189062       -0.0922532213
 C         -3.4000143269       -1.1177178923       -1.1703182121
 C         -2.6495956485       -0.9425537921       -2.3370859915
 C         -3.1632687379       -0.2577907670       -3.4166108119
 C         -4.4497277624        0.2490935926       -3.3598973242
 C         -5.2146226085        0.0243848542       -2.2313122323
 C         -4.7203705122       -0.6660803323       -1.1320810101
 C         -5.6194653991       -0.9196096536        0.0604657367
 C         -6.8615335907       -1.6916084100       -0.4208302638
 C         -6.0312462830        0.4335653205        0.6687496884
 C         -4.9174097795       -1.7275738304        1.1348735912
 C         -5.6212344023       -2.0838720375        2.2776514159
 C         -5.0306144174       -2.7669866812        3.3237665298
 C         -3.6878274134       -3.0869018039        3.2438757622
 C         -2.9663640692       -2.7468308397        2.1190306000
 C         -3.5675345739       -2.0859214281        1.0438442315
 C         -0.7100619764       -0.5948156480       -0.0230447394
 N         -1.3874894023        0.5569685082       -0.0778301185
 C         -0.7047585631        1.6835747690       -0.0601821324
 C         -1.4118442161        2.9358107671       -0.1891779271
 C         -2.7913580530        2.9186860258       -0.4128132008
 C         -3.4878919301        4.0945166807       -0.5655476192
 C         -2.8061051644        5.3048392474       -0.5016693452
 C         -1.4448179466        5.3327166341       -0.2867195051
 C         -0.7074756046        4.1545505607       -0.1217623925
 C          0.7322888615        4.1515078791        0.1072973609
 C          1.4753682118        5.3270360867        0.2652249010
 C          2.8367799780        5.2939655343        0.4787172599
 C          3.5127540621        4.0807279938        0.5486030903
 C          2.8103837169        2.9073298985        0.4036333230
 C          1.4307369396        2.9296456993        0.1811297806
 C          0.7172946644        1.6801710632        0.0598267095
 N          1.3938408197        0.5499515062        0.0842578550
 C          0.7101102050       -0.5985231277        0.0379517032
 C          3.3992196969       -1.1187883611        1.1761302861
 C          2.6559645729       -0.9304024715        2.3454355225
 C          3.1735094688       -0.2269906397        3.4110094476
 C          4.4572161939        0.2850076668        3.3378486503
 C          5.2161771178        0.0455879486        2.2082674100
 C          4.7175937151       -0.6633771831        1.1227397219
 H          6.5516695909       -2.6502166948        0.8537022463
 H          7.5340970546       -1.9033138795       -0.4065257442
 H          7.3917042626       -1.1317259027        1.1674308116
 H          6.6948998982        0.2580771479       -1.5371394783
 H          5.1383949082        0.9358763775       -1.0589210335
 H          6.5226583142        1.0416943060        0.0318999031
 H          6.6389069196       -1.8506568725       -2.3709943384
 H          5.5746217607       -3.0902170598       -4.1824432961
 H          3.1642267312       -3.6601883003       -4.0216816959
 H          1.8963847718       -3.0294730896       -2.0427356254
 H          1.2165299631       -3.9526563671        0.0864736215
 H         -1.2369319840       -3.9461199853       -0.0417830661
 H         -1.6504151736       -1.3481166652       -2.3921321985
 H         -2.5600470287       -0.1234574030       -4.3021640542
 H         -4.8598912750        0.7993139130       -4.1928411359
 H         -6.2251139684        0.4042285055       -2.2093447388
 H         -6.5601504201       -2.6477463610       -0.8447612816
 H         -7.3953414287       -1.1321321511       -1.1836594752
 H         -7.5473302507       -1.8812195659        0.3998958489
 H         -5.1495654682        0.9583944860        1.0320826478
 H         -6.5225407357        1.0570467892       -0.0735326579
 H         -6.7134311379        0.2919376680        1.5028094516
 H         -6.6624554160       -1.8128579969        2.3641036393
 H         -5.6087052503       -3.0313717646        4.1958488890
 H         -3.1967099887       -3.6000367533        4.0572977814
 H         -1.9158586047       -2.9869388785        2.0809386013
 H         -3.2807957602        1.9593024975       -0.4752191673
 H         -4.5531284563        4.0788094736       -0.7402189164
 H         -3.3447783247        6.2327423283       -0.6263904785
 H         -0.9500779372        6.2905955585       -0.2555303777
 H          0.9850127558        6.2870012310        0.2292933060
 H          3.3800015525        6.2200269562        0.5974354635
 H          4.5781527981        4.0609328951        0.7219459590
 H          3.2955177931        1.9461433382        0.4714244949
 H          1.6589454590       -1.3395339058        2.4126317702
 H          2.5756592343       -0.0819736425        4.2985370281
 H          4.8698409999        0.8507297234        4.1591521147
 H          6.2250276101        0.4289654358        2.1739505992
