  66
       -107.49523082
 C          0.6172761018       -0.0069492730       -0.0241587882
 C         -0.6171643781       -0.0093084356       -0.0278456987
 C         -1.9840658372       -0.0067831744       -0.0217139538
 C         -2.7164152478        0.6326846336        1.0242506368
 C         -4.0795547839        0.6408409398        1.0205998762
 C         -4.7976522609       -0.0002264635       -0.0075842310
 N         -6.2049672390        0.0003460533        0.0012016509
 C         -6.9145410169        1.1958334919       -0.0273940974
 C         -6.2806905443        2.4327376354       -0.1352813708
 C         -7.0154469895        3.6046742228       -0.1541733538
 C         -8.3964537774        3.5693337698       -0.0801677534
 C         -9.0470580752        2.3475131884       -0.0141054698
 C         -8.3186465624        1.1708440006        0.0034319501
 O         -9.0281821325        0.0009708017        0.0265461906
 C         -8.3188001840       -1.1692630393        0.0328656897
 C         -9.0473919813       -2.3456885884        0.0587645321
 C         -8.3964277241       -3.5680760539        0.1090657941
 C         -7.0144384020       -3.6043194105        0.1597802573
 C         -6.2795535573       -2.4326271574        0.1326057833
 C         -6.9144142456       -1.1950947532        0.0391527762
 C         -4.0927587057       -0.6437094178       -1.0432813162
 C         -2.7296410976       -0.6419739200       -1.0606613217
 C          1.9841554195       -0.0071806907       -0.0262713402
 C          2.7235515211       -0.6487250781       -1.0658261762
 C          4.0869320605       -0.6543192162       -1.0545406669
 C          4.7978549605       -0.0085371971       -0.0247097089
 N          6.2051025326       -0.0052718887       -0.0197998410
 C          6.9076474138        1.1944584760       -0.0476458614
 C          6.2671275646        2.4254935306       -0.1815810777
 C          6.9935567471        3.6024592166       -0.1975061147
 C          8.3729760975        3.5779405696       -0.0945119989
 C          9.0309206529        2.3617005970       -0.0030173069
 C          8.3107960980        1.1799442472        0.0113281777
 O          9.0271599594        0.0151478653        0.0614113740
 C          8.3257010662       -1.1597989667        0.0553244002
 C          9.0623342528       -2.3306966064        0.1008313426
 C          8.4197310971       -3.5578685778        0.1391406920
 C          7.0372682317       -3.6044396659        0.1568818200
 C          6.2943131650       -2.4382443103        0.1116461549
 C          6.9216585586       -1.1960151257        0.0318938724
 C          4.0856047245        0.6410375873        1.0025929689
 C          2.7227770530        0.6361070884        1.0128731821
 H         -2.1653602057        1.1003763187        1.8265659412
 H         -4.6282596100        1.1122878398        1.8242394711
 H         -5.2063256076        2.4700881534       -0.2157762023
 H         -6.4995248352        4.5490556620       -0.2335001489
 H         -8.9704106131        4.4823553929       -0.0900298404
 H        -10.1228582990        2.2827316607        0.0172156104
 H        -10.1234454394       -2.2802358010        0.0473227604
 H         -8.9704728749       -4.4808669885        0.1252150720
 H         -6.4975025607       -4.5491366582        0.2274332694
 H         -5.2040272885       -2.4710805374        0.1950808045
 H         -4.6515811910       -1.1124195386       -1.8415283734
 H         -2.1891590998       -1.1122797763       -1.8686354679
 H          2.1780747667       -1.1214167846       -1.8690151308
 H          4.6405744049       -1.1270306675       -1.8540360585
 H          5.1942825521        2.4536754830       -0.2840262205
 H          6.4727170867        4.5421924810       -0.2971609710
 H          8.9400627010        4.4952046748       -0.1004486039
 H         10.1062170479        2.3052775041        0.0521686493
 H         10.1379984170       -2.2569570486        0.1137074790
 H          9.0002976925       -4.4662854797        0.1703801954
 H          6.5261913158       -4.5531354426        0.2128784436
 H          5.2179755115       -2.4849602458        0.1502554926
 H          4.6395629912        1.1178442257        1.7994544332
 H          2.1765989320        1.1108499890        1.8144153459
