  66
       -107.49523082
 C          0.6172761018       -0.0069492730       -0.0241587882
 C         -0.6171643781       -0.0093084356       -0.0278456987
 C         -1.9840658372       -0.0067831744       -0.0217139538
 C         -2.7164152478        0.6326846336        1.0242506368
 C         -4.0795547839        0.6408409398        1.0205998762
 C         -4.7976522609       -0.0002264635       -0.0075842310
 N         -6.2049672390        0.0003460533        0.0012016509
 C         -6.9145410169        1.1958334919       -0.0273940974
 C         -6.2806905443        2.4327376354       -0.1352813708
 C         -7.0154469895        3.6046742228       -0.1541733538
 C         -8.3964537774        3.5693337698       -0.0801677534
 C         -9.0470580752        2.3475131884       -0.0141054698
 C         -8.3186465624        1.1708440006        0.0034319501
 O         -9.0281821325        0.0009708017        0.0265461906
 C         -8.3188001840       -1.1692630393        0.0328656897
 C         -9.0473919813       -2.3456885884        0.0587645321
 C         -8.3964277241       -3.5680760539        0.1090657941
 C         -7.0144384020       -3.6043194105        0.1597802573
 C         -6.2795535573       -2.4326271574        0.1326057833
 C         -6.9144142456       -1.1950947532        0.0391527762
 C         -4.0927587057       -0.6437094178       -1.0432813162
 C         -2.7296410976       -0.6419739200       -1.0606613217
 C          1.9841554195       -0.0071806907       -0.0262713402
 C          2.7235515211       -0.6487250781       -1.0658261762
 C          4.0869320605       -0.6543192162       -1.0545406669
 C          4.7978549605       -0.0085371971       -0.0247097089
 N          6.2051025326       -0.0052718887       -0.0197998410
 C          6.9076474138        1.1944584760       -0.0476458614
 C          6.2671275646        2.4254935306       -0.1815810777
 C          6.9935567471        3.6024592166       -0.1975061147
 C          8.3729760975        3.5779405696       -0.0945119989
 C          9.0309206529        2.3617005970       -0.0030173069
 C          8.3107960980        1.1799442472        0.0113281777
 O          9.0271599594        0.0151478653        0.0614113740
 C          8.3257010662       -1.1597989667        0.0553244002
 C          9.0623342528       -2.3306966064        0.1008313426
 C          8.4197310971       -3.5578685778        0.1391406920
 C          7.0372682317       -3.6044396659        0.1568818200
 C          6.2943131650       -2.4382443103        0.1116461549
 C          6.9216585586       -1.1960151257        0.0318938724
 C          4.0856047245        0.6410375873        1.0025929689
 C          2.7227770530        0.6361070884        1.0128731821
 H         -2.1653602057        1.1003763187        1.8265659412
 H         -4.6282596100        1.1122878398        1.8242394711
 H         -5.2063256076        2.4700881534       -0.2157762023
 H         -6.4995248352        4.5490556620       -0.2335001489
 H         -8.9704106131        4.4823553929       -0.0900298404
 H        -10.1228582990        2.2827316607        0.0172156104
 H        -10.1234454394       -2.2802358010        0.0473227604
 H         -8.9704728749       -4.4808669885        0.1252150720
 H         -6.4975025607       -4.5491366582        0.2274332694
 H         -5.2040272885       -2.4710805374        0.1950808045
 H         -4.6515811910       -1.1124195386       -1.8415283734
 H         -2.1891590998       -1.1122797763       -1.8686354679
 H          2.1780747667       -1.1214167846       -1.8690151308
 H          4.6405744049       -1.1270306675       -1.8540360585
 H          5.1942825521        2.4536754830       -0.2840262205
 H          6.4727170867        4.5421924810       -0.2971609710
 H          8.9400627010        4.4952046748       -0.1004486039
 H         10.1062170479        2.3052775041        0.0521686493
 H         10.1379984170       -2.2569570486        0.1137074790
 H          9.0002976925       -4.4662854797        0.1703801954
 H          6.5261913158       -4.5531354426        0.2128784436
 H          5.2179755115       -2.4849602458        0.1502554926
 H          4.6395629912        1.1178442257        1.7994544332
 H          2.1765989320        1.1108499890        1.8144153459
  66
       -107.49522449
 C          0.6174409303       -0.0287364964       -0.0710044744
 C         -0.6169352443       -0.0300512955       -0.0568046243
 C         -1.9836909569       -0.0286453615       -0.0367759890
 C         -2.7333424244       -1.1514179716       -0.5016028083
 C         -4.0963902357       -1.1357328256       -0.4902706754
 C         -4.7971068946       -0.0164146416       -0.0002717814
 N         -6.2042967824       -0.0088228505        0.0113968552
 C         -6.9049540645        0.1409301665        1.2031628241
 C         -6.2617837392        0.2280498812        2.4368181534
 C         -6.9881493857        0.3843802499        3.6037081736
 C         -8.3697574513        0.4428234311        3.5686536785
 C         -9.0292445031        0.3160697041        2.3565167966
 C         -8.3092784090        0.1579060658        1.1851492139
 O         -9.0273526083       -0.0041813933        0.0316248415
 C         -8.3266205495       -0.1654838690       -1.1326004945
 C         -9.0634531550       -0.3195336662       -2.2939154048
 C         -8.4214544747       -0.4447909374       -3.5156595450
 C         -7.0403775086       -0.3882839224       -3.5704096717
 C         -6.2972989228       -0.2366263412       -2.4136068078
 C         -6.9227004495       -0.1522149197       -1.1705765614
 C         -4.0747908912        1.0959940619        0.4734980703
 C         -2.7118351930        1.0995897766        0.4493957480
 C          1.9842866086       -0.0185220776       -0.0732998038
 C          2.7348979118       -1.1349779248       -0.5515084485
 C          4.0981737333       -1.1168180849       -0.5448123554
 C          4.7976471845       -0.0003601797       -0.0473477502
 N          6.2045385818        0.0052356702       -0.0161790535
 C          6.9447018105       -0.1284976937       -1.1856139743
 C          6.3423674405       -0.2192182837       -2.4394404594
 C          7.1077852253       -0.3592374881       -3.5832955851
 C          8.4882989597       -0.3977072734       -3.5044041619
 C          9.1070468484       -0.2668632622       -2.2713068522
 C          8.3479396820       -0.1245735743       -1.1228366049
 O          9.0265508551        0.0437557444        0.0534524129
 C          8.2869773953        0.1869082463        1.1957916771
 C          8.9840994932        0.3455625909        2.3808399892
 C          8.3017527259        0.4528057686        3.5822382905
 C          6.9206681151        0.3735066508        3.5927285987
 C          6.2171626813        0.2175686892        2.4120218590
 C          6.8829402087        0.1514488134        1.1889406122
 C          4.0742422663        1.1102257643        0.4295361122
 C          2.7114746400        1.1118011558        0.4091868414
 H         -2.1958782627       -2.0197678287       -0.8525873335
 H         -4.6584371578       -1.9950961615       -0.8290206730
 H         -5.1866918173        0.1609895741        2.4775699447
 H         -6.4651671677        0.4541386604        4.5448465042
 H         -8.9370542186        0.5698047255        4.4769619423
 H        -10.1056121108        0.3295114491        2.2963865571
 H        -10.1388312797       -0.3302942806       -2.2185711986
 H         -9.0017739229       -0.5684545952       -4.4160857225
 H         -6.5308329229       -0.4564760151       -4.5190782121
 H         -5.2227616358       -0.1719090890       -2.4694259380
 H         -4.6201833005        1.9604514484        0.8264169729
 H         -2.1577661862        1.9624156721        0.7880462651
 H          2.1981278174       -2.0017121661       -0.9075799895
 H          4.6603811468       -1.9733740002       -0.8903305332
 H          5.2682237056       -0.1678506152       -2.5139108995
 H          6.6161623753       -0.4321725615       -4.5410424872
 H          9.0861275964       -0.5120100539       -4.3946648529
 H         10.1810770361       -0.2641034933       -2.1769943305
 H         10.0611802701        0.3744690315        2.3398789462
 H          8.8512230921        0.5801009536        4.5014469916
 H          6.3802315698        0.4268729244        4.5251202416
 H          5.1425130172        0.1352838261        2.4333588765
 H          4.6195108793        1.9735395454        0.7851110507
 H          2.1567869971        1.9728368491        0.7511209506
  66
       -107.49513699
 C          0.6185748965        0.2125969897        0.1328053151
 C         -0.6160945601        0.2176025264        0.1251274671
 C         -1.9829694375        0.1975974451        0.1085179486
 C         -2.7174013411       -0.6533283499        0.9894752267
 C         -4.0797856334       -0.6849316163        0.9590396112
 C         -4.7954480110        0.1105909019        0.0429653071
 N         -6.2007867484        0.0495543805       -0.0033415539
 C         -6.9620776804        0.3562795778        1.1190824822
 C         -6.3873824546        0.8218639542        2.3008389170
 C         -7.1718892342        1.1113012361        3.4027760092
 C         -8.5455317871        0.9571281319        3.3473008299
 C         -9.1394515035        0.5350533957        2.1685383590
 C         -8.3610517042        0.2450473853        1.0615727642
 O         -9.0178676981       -0.1265760095       -0.0798512118
 C         -8.2590612531       -0.4084383224       -1.1830940028
 C         -8.9351352203       -0.7916542692       -2.3284626185
 C         -8.2315825997       -1.1317427696       -3.4727957506
 C         -6.8486021732       -1.1100225756       -3.4553570126
 C         -6.1661170893       -0.7280899272       -2.3141700108
 C         -6.8561372235       -0.3434802503       -1.1656471714
 C         -4.0888031095        0.9601562950       -0.8302166965
 C         -2.7269324711        1.0147515767       -0.7957731618
 C          1.9853287696        0.1848577008        0.1246240445
 C          2.7106628792       -0.6697502544        1.0094878562
 C          4.0728479555       -0.7143210057        0.9811755072
 C          4.7968858921        0.0723262345        0.0643092517
 N          6.2009817999       -0.0074934843        0.0095206397
 C          6.8401008943       -0.4061463362       -1.1599467095
 C          6.1333955278       -0.7950553461       -2.2968870050
 C          6.7993240481       -1.1803120758       -3.4466133566
 C          8.1820827994       -1.2008673411       -3.4843519417
 C          8.9022028971       -0.8574040099       -2.3513354921
 C          8.2426156181       -0.4718174108       -1.1971788167
 O          9.0167005059       -0.1877953333       -0.1051573654
 C          8.3752403439        0.1787646447        1.0466468628
 C          9.1689825633        0.4619753615        2.1444206640
 C          8.5916856364        0.8795529220        3.3329816540
 C          7.2190806784        1.0359853972        3.4075292608
 C          6.4191536250        0.7532182450        2.3148532557
 C          6.9772075372        0.2923712375        1.1233857061
 C          4.0993701644        0.9288929075       -0.8096285114
 C          2.7382287887        0.9965459366       -0.7772249865
 H         -2.1677669574       -1.2846890196        1.6716482327
 H         -4.6284017905       -1.3467341261        1.6149726863
 H         -5.3200344860        0.9655894467        2.3474495035
 H         -6.7011200013        1.4648132019        4.3070121567
 H         -9.1578336023        1.1768767850        4.2074244822
 H        -10.2090236940        0.4298995398        2.0822342122
 H        -10.0123975721       -0.8235786209       -2.2985011756
 H         -8.7649600602       -1.4263585555       -4.3625498593
 H         -6.2894858676       -1.3980039431       -4.3321495405
 H         -5.0883003398       -0.7379430029       -2.3045050013
 H         -4.6464468770        1.5906594525       -1.5089997933
 H         -2.1867787773        1.6837753805       -1.4490706881
 H          2.1542211542       -1.2950443686        1.6917409108
 H          4.6138824078       -1.3812296720        1.6381823339
 H          5.0556413027       -0.8050413841       -2.2715124299
 H          6.2274782202       -1.4717314590       -4.3139844062
 H          8.7025643355       -1.4971069081       -4.3812268294
 H          9.9799634200       -0.8891311098       -2.3370362686
 H         10.2371897312        0.3553252702        2.0431939716
 H          9.2160276984        1.0943023434        4.1857617506
 H          6.7611691039        1.3857252682        4.3197730349
 H          5.3527178714        0.8990755927        2.3763593570
 H          4.6641599399        1.5525380087       -1.4888577341
 H          2.2052745158        1.6701036542       -1.4317410882
  66
       -107.49503913
 C          0.6172346155        0.0022801532        0.0015580712
 C         -0.6170810230        0.0046496060        0.0030133459
 C         -1.9842053045        0.0034719648        0.0040951761
 C         -2.7214048759       -1.2193906135       -0.0092801419
 C         -4.0846820748       -1.2141565627       -0.0268847064
 C         -4.7963302319        0.0003755550        0.0043193592
 N         -6.2049268753       -0.0013224630        0.0030184572
 C         -6.9152535302        0.5356902220        1.0700496967
 C         -6.2804454035        1.0383601346        2.2043986492
 C         -7.0162017336        1.5640152751        3.2512603528
 C         -8.3983624424        1.5887224047        3.1954500102
 C         -9.0487781622        1.0616633395        2.0911275580
 C         -8.3195502101        0.5328615720        1.0404146408
 O         -9.0270205871       -0.0045320808       -0.0005227408
 C         -8.3158833098       -0.5416669082       -1.0391584892
 C         -9.0412552373       -1.0725928880       -2.0914392373
 C         -8.3868705368       -1.5987059881       -3.1939907632
 C         -7.0046910541       -1.5704928629       -3.2466043150
 C         -6.2727515777       -1.0423873316       -2.1983374803
 C         -6.9114418698       -0.5409928592       -1.0653929801
 C         -4.0873194990        1.2165296825        0.0355349453
 C         -2.7240364770        1.2247090340        0.0188814279
 C          1.9844037241        0.0023028458        0.0005693405
 C          2.7228878387       -1.2165758733        0.0901421463
 C          4.0862807592       -1.2089380008        0.1058071094
 C          4.7963929812        0.0018952278       -0.0029201798
 N          6.2049852888        0.0016852785       -0.0031216256
 C          6.9135013579        0.4689588104       -1.1036871891
 C          6.2767776795        0.8970930734       -2.2672717527
 C          7.0106793339        1.3546941886       -3.3467995879
 C          8.3927854270        1.3824861864       -3.2951414210
 C          9.0452172691        0.9276361667       -2.1602744213
 C          8.3179070032        0.4683224178       -1.0761445839
 O          9.0270956816       -0.0005492599       -0.0036501652
 C          8.3175128952       -0.4669690286        1.0696228271
 C          9.0445828271       -0.9262441197        2.1539386722
 C          8.3919487595       -1.3785369218        3.2896924374
 C          7.0097517808       -1.3487312609        3.3417602433
 C          6.2760449447       -0.8919141925        2.2616231899
 C          6.9131420210       -0.4655464851        1.0976248434
 C          4.0863278257        1.2128042237       -0.1103593990
 C          2.7230272836        1.2208157165       -0.0916481706
 H         -2.1744693731       -2.1504976683       -0.0023160136
 H         -4.6384764682       -2.1428864827       -0.0322459891
 H         -5.2045499802        1.0033889986        2.2654571170
 H         -6.5004478448        1.9490507322        4.1173521122
 H         -8.9730507192        2.0013118368        4.0093755659
 H        -10.1249189416        1.0443568068        2.0259972035
 H        -10.1175861257       -1.0570072905       -2.0292499050
 H         -8.9585861178       -2.0135353028       -4.0090380835
 H         -6.4858855651       -1.9558566700       -4.1107446765
 H         -5.1968788897       -1.0050628664       -2.2568678738
 H         -4.6430991032        2.1441042737        0.0418884073
 H         -2.1792577966        2.1570826227        0.0128227393
 H          2.1770056935       -2.1468959789        0.1415334009
 H          4.6411305423       -2.1348540881        0.1696139977
 H          5.2007529363        0.8599365422       -2.3235195531
 H          6.4935199039        1.6833657062       -4.2349712530
 H          8.9660913682        1.7399409509       -4.1358219534
 H         10.1214427080        0.9139398273       -2.0962974568
 H         10.1208798314       -0.9141207010        2.0895979525
 H          8.9650696687       -1.7375581715        4.1298664219
 H          6.4923742646       -1.6771522927        4.2298706040
 H          5.2000994814       -0.8529618684        2.3181428860
 H          4.6413793326        2.1390311247       -0.1735489364
 H          2.1771045840        2.1510901677       -0.1453501999
  66
       -107.49418145
 C          0.6177176470        0.6434145646        0.1302616758
 C         -0.6162238498        0.6646833737        0.0968116144
 C         -1.9789050465        0.5661744787        0.0541320147
 C         -2.5857897831       -0.7273826107        0.0848827130
 C         -3.9389766133       -0.8674749312        0.0328046149
 C         -4.7741791440        0.2657511046       -0.0264195802
 N         -6.1713511672        0.0969589275       -0.0569566311
 C         -6.9757705007        0.5847603245        0.9674358689
 C         -6.4577004168        1.3102499601        2.0384550963
 C         -7.2860985716        1.7764999214        3.0438353807
 C         -8.6443590940        1.5172236567        3.0114116981
 C         -9.1731197821        0.7673083689        1.9731870768
 C         -8.3510367363        0.2993287101        0.9625606034
 O         -8.9368138601       -0.4682161677       -0.0073172845
 C         -8.1344065325       -0.9439859148       -1.0084346159
 C         -8.7365445230       -1.7118419285       -1.9896851144
 C         -7.9901923836       -2.1937627355       -3.0534735471
 C         -6.6452555646       -1.8808744212       -3.1426497360
 C         -6.0358688607       -1.1175343905       -2.1635920758
 C         -6.7601455004       -0.6598562012       -1.0634958494
 C         -4.1957898275        1.5485780493       -0.0551402330
 C         -2.8396353260        1.7008774411       -0.0268205383
 C          1.9799765659        0.5341771154        0.1480370155
 C          2.5776799631       -0.7629774435        0.2013130355
 C          3.9312269908       -0.9121915229        0.1942167101
 C          4.7740209181        0.2138036510        0.1136021666
 N          6.1698290955        0.0421474091        0.0578862444
 C          6.8927394357        0.4618657501       -1.0539712032
 C          6.2839484189        1.0735930564       -2.1483405412
 C          7.0320064040        1.4776167790       -3.2397184987
 C          8.3989025630        1.2681702111       -3.2705255502
 C          9.0169247296        0.6274123924       -2.2086812279
 C          8.2750322909        0.2205722762       -1.1131847339
 O          8.9449402934       -0.4435662036       -0.1218049074
 C          8.2171133365       -0.8782222550        0.9523805476
 C          8.9010573608       -1.5627690561        1.9416603310
 C          8.2349699361       -1.9971673807        3.0767573438
 C          6.8879711093       -1.7192319058        3.2272560356
 C          6.1971006931       -1.0383024248        2.2412931206
 C          6.8396405959       -0.6313219880        1.0727676069
 C          4.2044027285        1.5007974581        0.0737395505
 C          2.8500172958        1.6639602208        0.1029012201
 H         -1.9438186498       -1.5924402551        0.1585900753
 H         -4.3927735097       -1.8482850165        0.0672687248
 H         -5.3969847020        1.4955099272        2.0873800362
 H         -6.8593857296        2.3387000368        3.8599988188
 H         -9.2911884909        1.8794518604        3.7946326193
 H        -10.2226111717        0.5236755488        1.9310277811
 H         -9.7918094898       -1.9156682611       -1.9036855507
 H         -8.4649168056       -2.7950544192       -3.8124802527
 H         -6.0614179750       -2.2266687553       -3.9816134240
 H         -4.9914648543       -0.8637885760       -2.2495333606
 H         -4.8428904878        2.4114047926       -0.1331769674
 H         -2.3964055929        2.6845199061       -0.0749919820
 H          1.9281549421       -1.6250332715        0.2320543166
 H          4.3763396296       -1.8973261730        0.2147293191
 H          5.2159222213        1.2191764121       -2.1457636236
 H          6.5355627586        1.9510316415       -4.0725969198
 H          8.9833818578        1.5831114975       -4.1203426963
 H         10.0755836011        0.4231552076       -2.2124783063
 H          9.9559877858       -1.7389370885        1.8051918073
 H          8.7733045745       -2.5341351376        3.8415247735
 H          6.3659883453       -2.0281613202        4.1196675149
 H          5.1522271157       -0.8090395103        2.3757589265
 H          4.8602853561        2.3601072787        0.0465193631
 H          2.4150423455        2.6523691309        0.0930594839
  66
       -107.49393120
 C          0.6175918823       -0.0813001325       -0.0968546907
 C         -0.6159913122       -0.0623374543       -0.0655762500
 C         -1.9830308869       -0.0496303655       -0.0330356576
 C         -2.7042231624        1.1752632567        0.0995967033
 C         -4.0668056802        1.1867121271        0.1272208802
 C         -4.7989064537       -0.0122252950        0.0128155929
 N         -6.2042081749        0.0088992084        0.0197201795
 C         -6.9079532058        0.7840338643       -0.8980296648
 C         -6.2713354400        1.5183973427       -1.8981060266
 C         -6.9997306729        2.3015174164       -2.7754371896
 C         -8.3791866894        2.3563043412       -2.6895053207
 C         -9.0345270775        1.5904758257       -1.7386231492
 C         -8.3119166837        0.8035304925       -0.8586488046
 O         -9.0294289925        0.0363967400        0.0177132257
 C         -8.3281634711       -0.7404714285        0.8986740716
 C         -9.0668153621       -1.5093342579        1.7812045773
 C         -8.4272126239       -2.2830259606        2.7364452587
 C         -7.0469071186       -2.2548353722        2.8235039952
 C         -6.3024543138       -1.4906751948        1.9429615578
 C         -6.9241151937       -0.7483830113        0.9392874093
 C         -4.1027521889       -1.2310683220       -0.1141534906
 C         -2.7399102419       -1.2559471228       -0.1296840909
 C          1.9848603135       -0.0694051158       -0.1158300684
 C          2.7060987479        1.1423334309       -0.3392176405
 C          4.0689029896        1.1581023781       -0.3313590288
 C          4.8008134423       -0.0218002595       -0.0893616118
 N          6.2049287976        0.0074236670       -0.0370481870
 C          6.8677048346        0.8557703073        0.8463397985
 C          6.1890702667        1.6905914052        1.7335369232
 C          6.8804580854        2.5438668603        2.5747639103
 C          8.2632576221        2.5708380739        2.5669942822
 C          8.9573326550        1.7078674524        1.7342447044
 C          8.2717482314        0.8509917214        0.8905443627
 O          9.0247456358       -0.0079225703        0.1376315129
 C          8.3631769642       -0.8409264638       -0.7222871966
 C          9.1371137007       -1.6904332899       -1.4933825583
 C          8.5399379214       -2.5254825881       -2.4242765923
 C          7.1686701482       -2.4790930728       -2.6013341138
 C          6.3886465436       -1.6362216971       -1.8303044735
 C          6.9643415769       -0.8290760580       -0.8495097451
 C          4.1048314924       -1.2309064145        0.1119698752
 C          2.7422192424       -1.2610994804        0.0928412317
 H         -2.1445972455        2.0927574019        0.2054837368
 H         -4.6036679077        2.1147430705        0.2672015578
 H         -5.1990249729        1.4654353908       -1.9927122769
 H         -6.4793303422        2.8673155842       -3.5326489662
 H         -8.9479260831        2.9734576173       -3.3667104090
 H        -10.1102162751        1.5813904193       -1.6657649601
 H        -10.1420312955       -1.4808752680        1.7059940052
 H         -9.0084713509       -2.8861657407        3.4156426559
 H         -6.5387332806       -2.8266717310        3.5844710830
 H         -5.2292710003       -1.4575032617        2.0378218333
 H         -4.6678599784       -2.1453627985       -0.2314629285
 H         -2.2085995999       -2.1888257868       -0.2462027643
 H          2.1468643643        2.0442912382       -0.5389125105
 H          4.6067515388        2.0728337336       -0.5388054183
 H          5.1124891702        1.6612476904        1.7711848162
 H          6.3277022970        3.1864460126        3.2425080903
 H          8.8035403142        3.2422757706        3.2152196628
 H         10.0350166422        1.6756550794        1.7276369764
 H         10.2060477871       -1.6755924109       -1.3530899153
 H          9.1483903571       -3.1900493516       -3.0168199684
 H          6.6960325723       -3.0991699117       -3.3472514353
 H          5.3237499957       -1.5927886792       -1.9920715187
 H          4.6690493582       -2.1301826568        0.3168276321
 H          2.2107608440       -2.1841131777        0.2710496554
  66
       -107.49366627
 C          0.6168667690       -0.0525343386       -0.0156235206
 C         -0.6170034319       -0.0505623992       -0.0368050580
 C         -1.9845550868       -0.0409040652       -0.0488773671
 C         -2.7125582308        1.1807013049        0.0760735254
 C         -4.0754373027        1.1869577100        0.0883574500
 C         -4.8019624675       -0.0139238474       -0.0422277362
 N         -6.2068393881       -0.0036249139       -0.0206556384
 C         -6.9292044989        0.7965523734       -0.9016261990
 C         -6.3136683720        1.5571164814       -1.8955288631
 C         -7.0595498779        2.3691285014       -2.7309954365
 C         -8.4362681972        2.4279775402       -2.6091676100
 C         -9.0721127431        1.6347036588       -1.6675818721
 C         -8.3320619627        0.8177085239       -0.8306166488
 O         -9.0321833441        0.0235440702        0.0355434581
 C         -8.3136741883       -0.7798921606        0.8776643424
 C         -9.0355135464       -1.5771545252        1.7489947984
 C         -8.3782667125       -2.3778183588        2.6693731971
 C         -6.9969470200       -2.3459819486        2.7355298700
 C         -6.2695165793       -1.5534509024        1.8659400349
 C         -6.9090774145       -0.7860903199        0.8926313883
 C         -4.0985644069       -1.2271067634       -0.1861806318
 C         -2.7356426602       -1.2473123798       -0.1817056098
 C          1.9843849953       -0.0422430731        0.0005277667
 C          2.7134359416        1.1632053306       -0.2302379858
 C          4.0763797357        1.1697580531       -0.2289522705
 C          4.8016219011       -0.0129302526        0.0202656524
 N          6.2067180578       -0.0020604262        0.0185714918
 C          6.9157231598        0.8749531164        0.8349898613
 C          6.2853081392        1.7246749184        1.7436603779
 C          7.0188957997        2.6091049973        2.5139432339
 C          8.3976786315        2.6543463929        2.4118470435
 C          9.0474388544        1.7768706114        1.5586109987
 C          8.3196545452        0.8876107483        0.7870840551
 O          9.0325610764        0.0164289120        0.0099450089
 C          8.3266192940       -0.8561555439       -0.7718209199
 C          9.0610841851       -1.7266851638       -1.5583111387
 C          8.4174384410       -2.6036578151       -2.4166513277
 C          7.0374682092       -2.5769958462       -2.5081818742
 C          6.2974216167       -1.7114235439       -1.7230058544
 C          6.9225350080       -0.8622998355       -0.8101478249
 C          4.0970627717       -1.2093038447        0.2641922126
 C          2.7342298247       -1.2312617781        0.2476714991
 H         -2.1579809981        2.0996872059        0.1946886048
 H         -4.6162520495        2.1122263027        0.2309344609
 H         -5.2442107144        1.5021273854       -2.0182363660
 H         -6.5553247042        2.9544129790       -3.4843490357
 H         -9.0183155216        3.0682937126       -3.2527502399
 H        -10.1458123654        1.6267030983       -1.5691730869
 H        -10.1119178982       -1.5484285995        1.6934282375
 H         -8.9464029800       -3.0028416507        3.3398053045
 H         -6.4741394574       -2.9368628746        3.4716638930
 H         -5.1953199528       -1.5188391555        1.9465555564
 H         -4.6583679881       -2.1412123543       -0.3281251532
 H         -2.1997064665       -2.1767182326       -0.3049007926
 H          2.1599463317        2.0667859882       -0.4384879573
 H          4.6186097653        2.0784604097       -0.4507933568
 H          5.2138171305        1.6826704282        1.8523300486
 H          6.5032883546        3.2619301678        3.2011955866
 H          8.9703235770        3.3500446247        3.0043440860
 H         10.1226720829        1.7580850724        1.4806122397
 H         10.1364498217       -1.6942435685       -1.4872383195
 H          8.9952911623       -3.2850545093       -3.0205924469
 H          6.5257017024       -3.2298866585       -3.1982393509
 H          5.2246965320       -1.6836290141       -1.8233191189
 H          4.6554692380       -2.1061275409        0.4943223817
 H          2.1971898265       -2.1458184733        0.4511212160
