  111
       -152.29715024
 C          8.7569572927        0.4982184024       -1.5911462522
 C          7.6354308091        1.3160775948       -2.2377276348
 C          7.9892765275        2.8032858811       -2.0963352621
 C          7.5651210067        0.9364205665       -3.7237683533
 C          6.2809754952        1.0644661775       -1.5933672512
 C          5.1607060327        1.7499923180       -2.0823939047
 C          3.8950253384        1.5937169356       -1.5552684800
 C          3.7399097849        0.7231807839       -0.4862809101
 C          4.8468234787        0.0017742392        0.0091358364
 C          6.1075857293        0.1760511438       -0.5416883766
 C          4.3466665911       -0.8333270290        1.0690409383
 C          4.9552357968       -1.7366051256        1.9268920084
 C          4.1974640786       -2.3911404843        2.8876877993
 C          4.7965202544       -3.3988042471        3.8566595178
 C          6.2995401844       -3.5991867736        3.6437380251
 C          4.5811172150       -2.9061915098        5.2947621037
 C          4.1026927935       -4.7547186922        3.6620652839
 C          2.8292861722       -2.1014849757        2.9717239382
 C          2.1984882022       -1.2059995054        2.1320142404
 C          2.9605692456       -0.5791254419        1.1568228488
 N          2.6037458038        0.3560921653        0.2074165209
 C          1.3223533366        0.8821319884        0.0096372733
 C          1.1564235423        2.2555529085       -0.0672717461
 C         -0.1186518642        2.8109821966       -0.2430237417
 C         -0.2169051687        4.2732004002       -0.2781561688
 O          0.8154085455        4.9740945052       -0.3961990992
 C         -1.5167386590        4.8891291517       -0.1231774337
 C         -1.5894945383        6.3056541610       -0.1434088066
 C         -2.8007335570        6.9120703021        0.0393115160
 C         -3.9486994740        6.1331036792        0.2493513935
 C         -3.7941172848        4.7578470536        0.2615284540
 N         -2.6290135824        4.1817733758        0.0834452677
 C         -1.2080226491        1.9501781297       -0.3900369812
 C         -1.0465258905        0.5772333280       -0.2536510487
 N         -2.1678556133       -0.2504759237       -0.3532223794
 C         -3.3742295642       -0.0256880392        0.2803635159
 C         -3.7421170864        0.9662784432        1.1780065675
 C         -5.0278122006        0.9381558905        1.6786040182
 C         -5.9616688001       -0.0465057880        1.3290832911
 C         -7.3579547944        0.0205201603        1.9289019104
 C         -8.0071937533        1.3570371605        1.5413860504
 C         -7.2547756240       -0.0839951561        3.4572163485
 C         -8.2662607925       -1.1087349363        1.4347853418
 C         -5.5709830446       -1.0501582941        0.4542295422
 C         -4.2853904829       -1.0456372859       -0.0664739828
 C         -3.5867586514       -1.9258343293       -0.9656695455
 C         -3.9609605383       -3.0786320935       -1.6394832484
 C         -3.0542891502       -3.7103369334       -2.4784440795
 C         -3.3923624446       -4.9821896500       -3.2412231626
 C         -2.4066810868       -6.0878942484       -2.8368581740
 C         -3.2800612951       -4.7104815139       -4.7481389392
 C         -4.8103254251       -5.4828549583       -2.9526075886
 C         -1.7820949013       -3.1448048438       -2.6351540018
 C         -1.3831458842       -1.9994794203       -1.9762251459
 C         -2.2875617152       -1.3941765687       -1.1163348279
 C          0.2199091583        0.0299356346       -0.0601180983
 H          8.8639282971        0.7453910207       -0.5374784689
 H          8.5720013444       -0.5688203072       -1.6916367323
 H          9.6998943987        0.7227617575       -2.0856520811
 H          7.2578359031        3.4353352001       -2.5916803286
 H          8.0231621241        3.0823182985       -1.0452276402
 H          8.9640699839        2.9999393938       -2.5377656661
 H          8.5321350251        1.0948135040       -4.1963887038
 H          6.8270848882        1.5331145387       -4.2517791929
 H          7.2957766188       -0.1122601709       -3.8311214136
 H          5.2784744601        2.4337094998       -2.9086770030
 H          3.0572546624        2.1339619996       -1.9679178798
 H          6.9310388799       -0.3891547354       -0.1382946814
 H          6.0141448167       -1.9081025031        1.8301701796
 H          6.8437567113       -2.6706509926        3.7996706035
 H          6.6722689110       -4.3300672919        4.3585515115
 H          6.5073086377       -3.9724660909        2.6435776990
 H          3.5245618617       -2.8143517800        5.5301910275
 H          5.0462551504       -1.9320973770        5.4313323492
 H          5.0272096957       -3.6041440475        6.0001715475
 H          3.0374253966       -4.6885227301        3.8646630658
 H          4.5319774559       -5.4949373235        4.3340902238
 H          4.2341146916       -5.0998149756        2.6385502827
 H          2.2308939008       -2.5889556390        3.7260148829
 H          1.1470540410       -0.9927798924        2.2494533441
 H          1.9979197132        2.9211650233        0.0446396148
 H         -0.6681692046        6.8442404357       -0.3042551481
 H         -2.8786379877        7.9898479592        0.0223885685
 H         -4.9173998142        6.5815334102        0.3960345216
 H         -4.6329104945        4.0907145611        0.4179977462
 H         -2.1807323859        2.3461330799       -0.6346074361
 H         -3.0508537458        1.7370130828        1.4811242385
 H         -5.3121875874        1.7135224015        2.3735010058
 H         -9.0202374371        1.4090867878        1.9346542567
 H         -7.4473555033        2.2003363711        1.9358256780
 H         -8.0518806791        1.4528783231        0.4584308115
 H         -6.6710320683        0.7324883302        3.8728968156
 H         -6.7779276940       -1.0208218756        3.7381476133
 H         -8.2470882939       -0.0543206825        3.9024004321
 H         -9.2509596731       -1.0053217662        1.8862332892
 H         -8.3865437760       -1.0696192865        0.3545679211
 H         -7.8701225636       -2.0817295532        1.7160133145
 H         -6.2430770623       -1.8412558084        0.1666016068
 H         -4.9585307078       -3.4593094394       -1.4977580044
 H         -1.3831216375       -5.8170373963       -3.0798976770
 H         -2.4657894367       -6.2702248555       -1.7657425461
 H         -2.6465795761       -7.0121727202       -3.3582782257
 H         -2.2726932677       -4.4120587566       -5.0243021659
 H         -3.9625647245       -3.9141966439       -5.0379183217
 H         -3.5358301971       -5.6063001887       -5.3100873691
 H         -4.9385026149       -5.7074426318       -1.8961851866
 H         -4.9928685845       -6.3966687030       -3.5144987870
 H         -5.5541516572       -4.7496970483       -3.2557480555
 H         -1.0740224556       -3.6124431614       -3.3019284100
 H         -0.4010205008       -1.5847875031       -2.1440425920
 H          0.3461215667       -1.0368765861        0.0300374546
