  49
        -83.04364110
 N          8.3637013890       -1.1207117078       -0.0345925671
 C          7.4142856873       -0.4784705388       -0.0133222658
 C          6.2487487428        0.3190283535        0.0078266493
 C          6.3445771046        1.7091173013        0.0328960608
 C          5.2003151572        2.4929736518        0.0531302313
 C          3.9445013204        1.9148778844        0.0475886141
 C          3.8210424235        0.5291473563        0.0222922431
 C          4.9798476332       -0.2656735674        0.0035869977
 S          4.6365998227       -1.9761554998       -0.0240284630
 C          2.9187978495       -1.6508075229       -0.0124664196
 C          1.9130591446       -2.6065027617       -0.0256401725
 C          0.6023136466       -2.1830815292       -0.0172398512
 C          0.2884826090       -0.8181878817        0.0034501433
 C         -1.1115720749       -0.3927784793        0.0057703405
 N         -2.0484240629       -1.3352274284        0.0055588325
 C         -3.3076825844       -0.9050583428        0.0083713252
 C         -4.3748305947       -1.9050614966        0.0095191453
 C         -5.7097209737       -1.5056281716        0.0359385066
 C         -6.7149117887       -2.4528912836        0.0350113731
 C         -6.3988236495       -3.8024416460        0.0072363744
 C         -5.0724962230       -4.2050381796       -0.0190556640
 C         -4.0624761708       -3.2630041948       -0.0176082557
 N         -3.6525381505        0.3791890609        0.0079990627
 C         -2.6516658601        1.2543693080        0.0032378315
 C         -2.9846184980        2.6788860810       -0.0069493299
 C         -4.3171800968        3.0865455897       -0.0015343043
 C         -4.6289126897        4.4320853886       -0.0148425968
 C         -3.6177228417        5.3801892099       -0.0337929274
 C         -2.2904251733        4.9800705576       -0.0390323468
 C         -1.9721285297        3.6361605815       -0.0256140715
 N         -1.3655552250        0.9125768023        0.0044688832
 C          1.2993106578        0.1336381126        0.0188425484
 C          2.6252043945       -0.2749070787        0.0114652397
 H          7.3224989101        2.1664912918        0.0364307980
 H          5.2965415713        3.5677253640        0.0732310640
 H          3.0578964124        2.5295730136        0.0630222995
 H          2.1607747834       -3.6563437682       -0.0428598174
 H         -0.2072010586       -2.8948415933       -0.0276261784
 H         -5.9365814801       -0.4513932967        0.0569649977
 H         -7.7491131647       -2.1418068820        0.0555354331
 H         -7.1869289399       -4.5412400922        0.0060255715
 H         -4.8286414132       -5.2571205639       -0.0405175028
 H         -3.0251592078       -3.5578353914       -0.0366811402
 H         -5.0903647879        2.3347531500        0.0123238922
 H         -5.6623455876        4.7462527527       -0.0110729799
 H         -3.8641173554        6.4318961732       -0.0447111339
 H         -1.5043816269        5.7209402150       -0.0537064382
 H         -0.9452774235        3.3061639323       -0.0296241500
 H          1.0378023905        1.1793705242        0.0357145769
  49
        -83.04351756
 N          8.3624254821       -1.1152255410        0.1219206172
 C          7.4129341104       -0.4831367873        0.0085770915
 C          6.2470492710        0.3017866896       -0.1293140316
 C          6.3420333995        1.6660528759       -0.3980666776
 C          5.1975757822        2.4375950449       -0.5351127852
 C          3.9422320031        1.8725108944       -0.4079664112
 C          3.8196172060        0.5124888523       -0.1403462005
 C          4.9786402895       -0.2701532844       -0.0024385437
 S          4.6359572260       -1.9494954380        0.3244877578
 C          2.9178691457       -1.6276474860        0.2781133109
 C          1.9125164553       -2.5662125593        0.4609753145
 C          0.6014251812       -2.1497080590        0.3869166397
 C          0.2881415720       -0.8068850735        0.1421814739
 C         -1.1117250820       -0.3860541817        0.0750386471
 N         -2.0444477148       -1.3311939016        0.0289927287
 C         -3.3028933539       -0.9034992175       -0.0405955955
 C         -4.3652119011       -1.9051301209       -0.1230512035
 C         -5.7022359966       -1.5117619964       -0.1025999420
 C         -6.7030022530       -2.4604104290       -0.1811915187
 C         -6.3799653362       -3.8051264215       -0.2817229972
 C         -5.0514179986       -4.2014234276       -0.3041626877
 C         -4.0457072714       -3.2580495234       -0.2248821706
 N         -3.6511205204        0.3797604557       -0.0372599834
 C         -2.6541820104        1.2572385897        0.0241332315
 C         -2.9915788770        2.6802759784        0.0531201917
 C         -1.9884607667        3.6355392832        0.2055311763
 C         -2.3117465027        4.9777652806        0.2442987356
 C         -3.6342563303        5.3778928867        0.1313101336
 C         -4.6357683421        4.4316681533       -0.0219250685
 C         -4.3193054488        3.0877523932       -0.0610844417
 N         -1.3678246712        0.9186017370        0.0660042782
 C          1.2981201147        0.1288498864       -0.0361819962
 C          2.6241356677       -0.2750729670        0.0249319432
 H          7.3195810626        2.1130972505       -0.4986432029
 H          5.2932371546        3.4919932294       -0.7446504387
 H          3.0552517525        2.4770979928       -0.5164031683
 H          2.1605000482       -3.5979628492        0.6556491656
 H         -0.2079667726       -2.8490472000        0.5221635973
 H         -5.9342741208       -0.4614671707       -0.0222602190
 H         -7.7391561355       -2.1544414187       -0.1642350522
 H         -7.1647359405       -4.5448426780       -0.3443817053
 H         -4.8026693150       -5.2493352836       -0.3850777558
 H         -3.0062085639       -3.5473867882       -0.2449241331
 H         -0.9657873671        3.3048782886        0.2974154238
 H         -1.5334223631        5.7171953820        0.3647114036
 H         -3.8846000632        6.4282034540        0.1635465341
 H         -5.6653993752        4.7459698126       -0.1099751381
 H         -5.0847460095        2.3373060195       -0.1801958942
 H          1.0363412476        1.1574499090       -0.2259698283
