74
 energy: -122.957522058874 gnorm: 0.000087364603 xtb: 6.7.1 (edcfbbe)
N           -0.00581638215208        1.03027719799510        0.56421167266563
C           -0.00274352571674       -0.12956533354602        0.61612985208766
C           -0.00106488569564       -1.50876486454996        0.66907804066167
C           -1.23569209568147       -2.24143783946929        0.79044906844854
C           -2.51836320384302       -1.61466316850499        0.52978414078379
C           -2.65874100519669       -0.66868084947685       -0.49503230753598
C           -3.86330395072047       -0.04561208709290       -0.72493661262742
C           -4.97061556507054       -0.35264420978046        0.06410009007791
N           -6.20257181536529        0.31196328222115       -0.15187281574015
C           -6.30901473376737        1.68058903948458        0.06592162963855
C           -5.24144047177511        2.44497534610570        0.53068102957762
C           -5.38624360390616        3.80570756621173        0.73440970608277
C           -6.59745800980882        4.42847828926396        0.48887268970876
C           -7.67785047558317        3.67958033294322        0.05201855525790
C           -7.54175681021321        2.31747275851219       -0.15323649495393
O           -8.65601402658526        1.63293306420167       -0.55852016513745
C           -8.53349664893442        0.28737148725099       -0.76984797789932
C           -9.66248050110880       -0.39210666774598       -1.19362035659778
C           -9.60100754212308       -1.75182400615042       -1.45216914939602
C           -8.40137169292887       -2.42453736113204       -1.30088060690191
C           -7.26883514930485       -1.75312392480475       -0.87568309220828
C           -7.31774547117847       -0.39205725289553       -0.58375726772794
C           -4.85511215138517       -1.30874196308295        1.07189801274622
C           -3.64825311276403       -1.93016693395270        1.29770866861671
C           -1.15294809977622       -3.57326666554157        1.13605333791401
N           -0.00167917088759       -4.21849174481722        1.29569831456629
C            1.14935144098978       -3.57405915516183        1.13507059213871
C            1.23382079629235       -2.24195280989681        0.78971854833361
C            2.51686058174377       -1.61656637027933        0.52943173104008
C            2.65617619644374       -0.66145147373707       -0.48735271182594
C            3.86131296308830       -0.03900468957241       -0.71572005878525
C            4.97092930991251       -0.35659358446979        0.06576573822457
N            6.20397302987097        0.30703508362613       -0.14869448362834
C            6.31727732602916        1.67112560978979        0.09159639303019
C            5.25582624946308        2.43110162859875        0.57707337854681
C            5.40753344839847        3.78735770412132        0.80426741277552
C            6.61960025579881        4.40963025153288        0.56161573289357
C            7.69378292586403        3.66473331303128        0.10303217510758
C            7.55078096868754        2.30713882621451       -0.12590329420309
O            8.65886142310120        1.62572449488016       -0.55294401243793
C            8.52938511870195        0.28444427726181       -0.78658634852135
C            9.65185239506631       -0.39187757110328       -1.23208818760059
C            9.58285328095678       -1.74689203363194       -1.51267459004993
C            8.38236261766740       -2.41800120134081       -1.36086891269706
C            7.25623128581746       -1.74975056638583       -0.91421569812373
C            7.31277791368638       -0.39369028399631       -0.60124243731826
C            4.85696920709581       -1.32198786669583        1.06481911765481
C            3.64925929889090       -1.94179776340102        1.29003388695505
H           -1.81295683316797       -0.43308882757724       -1.12177305498617
H           -3.96085653107910        0.67975652981528       -1.51948175357244
H           -4.29611962512916        1.96929552339124        0.73665981036163
H           -4.54286582947089        4.37625294986776        1.09016176144215
H           -6.70942600500811        5.48974765373487        0.64408046386730
H           -8.63964862058881        4.13064314695971       -0.13235480055079
H          -10.57719717805150        0.16466174362608       -1.31887849313446
H          -10.48501480783380       -2.27524057420926       -1.77989633246183
H           -8.33916249547782       -3.47957408155173       -1.51773661873299
H           -6.33415103636378       -2.28111262310763       -0.77441009191471
H           -5.71365356699293       -1.53874982181654        1.68660406298142
H           -3.56040373601177       -2.64411864102727        2.10279378481671
H           -2.04230885936726       -4.18191773378183        1.22462197547130
H            2.03815703934544       -4.18365670084332        1.22302709000534
H            1.80893816599625       -0.41800219311197       -1.10904010104476
H            3.95760655073149        0.69405357937398       -1.50333779103778
H            4.31005512641154        1.95518056891793        0.78048134156216
H            4.56899573270477        4.35477864023589        1.17610752396443
H            6.73703176495478        5.46740726820023        0.73550835595065
H            8.65587886775705        4.11551948337019       -0.08046480351761
H           10.56751016763111        0.16354054712943       -1.35649000669458
H           10.46180085239605       -2.26783727677412       -1.85750928032654
H            8.31446860985762       -3.46918480475485       -1.59412062102960
H            6.32058579199839       -2.27592917731285       -0.81222742742915
H            5.71754925623046       -1.56040937030920        1.67345197147970
H            3.56298499849409       -2.66244058701814        2.08927957028423
