  74
       -122.95403212
 N         -0.0092192910        1.0322414668        0.5868470576
 C         -0.0056919222       -0.1273529105        0.6264703711
 C         -0.0021690340       -1.5085958190        0.6788139651
 C         -1.2347504369       -2.2396702270        0.7989256281
 C         -2.5177236019       -1.6144093074        0.5419603646
 C         -2.6602959186       -0.6624387788       -0.4786149729
 C         -3.8655321631       -0.0423177481       -0.7070461330
 C         -4.9743638787       -0.3567463699        0.0791157462
 N         -6.2063955288        0.3070906188       -0.1370522497
 C         -6.3082031010        1.6770660775        0.0692490665
 C         -5.2425190010        2.4388779950        0.5442340295
 C         -5.3815113882        3.8017251973        0.7339538126
 C         -6.5852417074        4.4305615109        0.4643999509
 C         -7.6642475955        3.6851605830        0.0189729721
 C         -7.5343340786        2.3201790654       -0.1722664486
 O         -8.6463355783        1.6388144345       -0.5863560796
 C         -8.5296616172        0.2911980060       -0.7838276506
 C         -9.6572562833       -0.3850163028       -1.2172378699
 C         -9.6007452294       -1.7470775294       -1.4629827197
 C         -8.4069962952       -2.4261861058       -1.2893478609
 C         -7.2760172107       -1.7585248447       -0.8554904097
 C         -7.3198125006       -0.3940896796       -0.5761755169
 C         -4.8569922013       -1.3180691371        1.0830041363
 C         -3.6491326135       -1.9368933668        1.3069815989
 C         -1.1492220256       -3.5754252235        1.1386587835
 N         -0.0008715772       -4.2234164781        1.2945853752
 C          1.1457036021       -3.5765381253        1.1295833152
 C          1.2320238721       -2.2397181772        0.7912463147
 C          2.5141293221       -1.6164479781        0.5298984106
 C          2.6516662603       -0.6467430793       -0.4753396109
 C          3.8568361000       -0.0265091003       -0.7032809013
 C          4.9721936128       -0.3594963070        0.0660383920
 N          6.2045632216        0.3046039759       -0.1472716167
 C          6.3158690798        1.6677836442        0.0953559468
 C          5.2565553988        2.4233640773        0.5939735713
 C          5.4053293993        3.7795365136        0.8207804523
 C          6.6125177548        4.4075436064        0.5650453104
 C          7.6851966907        3.6675867576        0.0958063556
 C          7.5455433321        2.3092226514       -0.1323489916
 O          8.6519681981        1.6320554992       -0.5677874567
 C          8.5269277202        0.2903533440       -0.7973236978
 C          9.6501262386       -0.3825754387       -1.2469089613
 C          9.5846397828       -1.7378944424       -1.5256121871
 C          8.3862532553       -2.4131039744       -1.3689931447
 C          7.2598250572       -1.7489249868       -0.9184295798
 C          7.3128493410       -0.3920844886       -0.6053477972
 C          4.8607139562       -1.3397090082        1.0524851206
 C          3.6526524408       -1.9569812417        1.2774844747
 H         -1.8147661903       -0.4222716529       -1.1039837245
 H         -3.9649335244        0.6857005412       -1.4989923832
 H         -4.3037313029        1.9585547265        0.7683324480
 H         -4.5401215193        4.3700228829        1.0978102020
 H         -6.6920184394        5.4938709607        0.6085321026
 H         -8.6203197629        4.1408518159       -0.1830589499
 H        -10.5664554566        0.1765386683       -1.3601991077
 H        -10.4833440684       -2.2679685904       -1.7983558412
 H         -8.3491135034       -3.4834768882       -1.4960447546
 H         -6.3459447836       -2.2911428931       -0.7381026339
 H         -5.7151884404       -1.5520624033        1.6967477297
 H         -3.5601727560       -2.6539981836        2.1091201446
 H         -2.0396485819       -4.1830160997        1.2289020402
 H          2.0358348595       -4.1858157557        1.2113424633
 H          1.8019578228       -0.3923285098       -1.0892082611
 H          3.9514924197        0.7157836695       -1.4824905925
 H          4.3151558146        1.9432746393        0.8072930661
 H          4.5687205114        4.3433010054        1.2023550756
 H          6.7269080898        5.4657951468        0.7379323382
 H          8.6436861373        4.1223834171       -0.0964650749
 H         10.5631229279        0.1760663290       -1.3763504652
 H         10.4638208632       -2.2563405089       -1.8735160679
 H          8.3212259555       -3.4644685792       -1.6021150820
 H          6.3261455328       -2.2778575339       -0.8135716647
 H          5.7238697086       -1.5887447919        1.6532566304
 H          3.5689393678       -2.6867537465        2.0686488848
