  74
       -123.02947936
 N         -0.0381430957        0.9916783223        0.1360528784
 C         -0.0229930007       -0.1550034484        0.1553146287
 C         -0.0088645736       -1.5678559377        0.2449014324
 C         -1.2185564535       -2.2753138767        0.3446350856
 C         -2.5170294039       -1.6070370037        0.2242319194
 C         -2.7589865754       -0.6966037062       -0.8029024772
 C         -3.9841945911       -0.0727606710       -0.9131675403
 C         -4.9914092758       -0.3357478859        0.0119957558
 N         -6.2330007433        0.3208444358       -0.0841403838
 C         -6.3088840953        1.7136034727        0.0263194422
 C         -5.1919500304        2.5030757529        0.2693915756
 C         -5.3055756115        3.8810450486        0.3744337905
 C         -6.5366418555        4.4920008695        0.2501388173
 C         -7.6661909519        3.7149463123        0.0411638550
 C         -7.5587181910        2.3404720806       -0.0615282193
 O         -8.7265064832        1.6385045851       -0.2319711117
 C         -8.6360325673        0.2732025503       -0.3303185625
 C         -9.8180679348       -0.4205650979       -0.5108697455
 C         -9.8063132150       -1.8000583527       -0.6549211166
 C         -8.6026776297       -2.4743416109       -0.6372222864
 C         -7.4144550166       -1.7834513997       -0.4530312455
 C         -7.4116679403       -0.4061193783       -0.2715392733
 C         -4.7571844137       -1.2509112024        1.0357594736
 C         -3.5366650747       -1.8859481894        1.1330717646
 C         -1.1316557673       -3.6486456984        0.5715117896
 N          0.0076097261       -4.3034599077        0.6842033422
 C          1.1381457584       -3.6344975456        0.5709838017
 C          1.2098280384       -2.2587493438        0.3486172499
 C          2.5027915069       -1.5789693046        0.2369178010
 C          2.7366485373       -0.6412816832       -0.7674617710
 C          3.9627741168       -0.0181881118       -0.8751128836
 C          4.9807098874       -0.3117898932        0.0286343726
 N          6.2311255775        0.3273267498       -0.0727638856
 C          6.3371561709        1.7144869452        0.0733646880
 C          5.2403039975        2.5188868815        0.3554448360
 C          5.3840871011        3.8906315716        0.4987765423
 C          6.6257090527        4.4797716366        0.3740549952
 C          7.7356429869        3.6866889850        0.1242737156
 C          7.5981743837        2.3184055548       -0.0171136493
 O          8.7482517849        1.5985302748       -0.2279529027
 C          8.6279907811        0.2388197141       -0.3644787993
 C          9.7920368982       -0.4729212340       -0.5866545605
 C          9.7492678456       -1.8470984883       -0.7693478994
 C          8.5325093879       -2.4974272151       -0.7483998104
 C          7.3623722259       -1.7884967072       -0.5233799742
 C          7.3912124743       -0.4172134008       -0.3028034216
 C          4.7524071005       -1.2484280082        1.0344129562
 C          3.5303497292       -1.8798991522        1.1305529148
 H         -1.9915634615       -0.4946426461       -1.5353843405
 H         -4.1701410369        0.6215740154       -1.7187055258
 H         -4.2243400010        2.0413875838        0.3869059187
 H         -4.4191805512        4.4681074205        0.5579882057
 H         -6.6296497947        5.5638536772        0.3258286835
 H         -8.6464293991        4.1569497185       -0.0392397902
 H        -10.7386640653        0.1400921032       -0.5411553125
 H        -10.7338811544       -2.3329388260       -0.7918811139
 H         -8.5742389484       -3.5449485188       -0.7697899659
 H         -6.4795580850       -2.3217557280       -0.4598965300
 H         -5.5346821991       -1.4506759118        1.7580714427
 H         -3.3554055646       -2.5784419495        1.9418588671
 H         -2.0292587058       -4.2467690119        0.6532628827
 H          2.0427836813       -4.2225290624        0.6498409711
 H          1.9631309371       -0.4183276866       -1.4872328330
 H          4.1415745896        0.6962128562       -1.6645452714
 H          4.2652857695        2.0729410134        0.4735004302
 H          4.5131521530        4.4900861226        0.7131440417
 H          6.7422480966        5.5466344812        0.4804983090
 H          8.7236177061        4.1108807873        0.0416718633
 H         10.7232674651        0.0696910935       -0.6181108112
 H         10.6632726036       -2.3945632106       -0.9371798432
 H          8.4794239490       -3.5630539470       -0.9103312198
 H          6.4166790564       -2.3076626115       -0.5282938823
 H          5.5379581666       -1.4701984061        1.7414424364
 H          3.3553959290       -2.5900499955        1.9252783184
