48
 energy: -82.846264699022 gnorm: 0.000030488354 xtb: 6.7.1 (edcfbbe)
N           -6.24857715472813       -2.02546337974068       -2.76503171949007
C           -5.68774989859145       -1.43214688901786       -1.96159745865314
C           -4.98903448794023       -0.70711210866148       -0.96542270225888
C           -5.70025474867531       -0.00134596291657        0.00337116655965
C           -4.98811234799742        0.70426801342453        0.97160213212479
C           -5.68584860891457        1.42959078098733        1.96825303433915
N           -6.24585875210598        2.02319869135193        2.77204276099952
C           -3.59590793301412        0.70671520163670        0.97241501674786
C           -2.88243601552254       -0.00162905143814        0.00221417309014
C           -1.42176856036250       -0.00150883520337        0.00158823642364
C           -0.71234750431270       -1.24349134613362        0.03233988761643
C           -1.37271674392714       -2.46860436978214        0.14711325803120
C           -0.68162245800105       -3.67812533245745        0.08860566427122
C            0.68295012518379       -3.67768084840848       -0.09383986709304
C            1.37360742650183       -2.46778755382132       -0.14986159724996
C            0.71281382316146       -1.24315071460425       -0.03247599837498
C            1.42174451408055       -0.00094133241512        0.00083366458112
C            2.88239654943329       -0.00042306418560       -0.00027727545972
C            3.59751256435525       -0.71078678062470        0.96723081714724
C            4.98972122248081       -0.70755325042980        0.96459520804014
C            5.68917063709166       -1.43494079101772        1.95853711201307
N            6.25059605804483       -2.03019557888985        2.76011817435701
C            5.70023674523494        0.00092772497446       -0.00273352132979
C            4.98737639258712        0.70876693362820       -0.96881352221018
C            5.68435625948588        1.43696111630859       -1.96389828146290
N            6.24373289701201        2.03293080755187       -2.76638088336669
C            3.59517567054641        0.71065530592566       -0.96899934119454
C            0.71231040070538        1.24096450418538        0.03478105098794
C            1.37266051866909        2.46583346109351        0.15224640332146
C            0.68152382062838        3.67546744699385        0.09650268757760
C           -0.68306818976290        3.67539757005901       -0.08580922277573
C           -1.37371637689159        2.46561261777363       -0.14422750164037
C           -0.71285669404664        1.24075142537550       -0.02953166933407
C           -3.59682388270242       -0.70986063292633       -0.96738264113249
H           -6.77964147561817       -0.00120592938358        0.00378579622440
H           -3.06472289042711        1.23947819018876        1.74772280640737
H           -2.44205998567957       -2.48926141789114        0.29188246538219
H           -1.22592191746284       -4.60600580715401        0.17240490224670
H            1.22759696057912       -4.60518111618639       -0.17956327336507
H            2.44294317122279       -2.48778236402468       -0.29476257316826
H            3.06766519538083       -1.24568249162638        1.74198529900577
H            6.77962250565529        0.00144053589511       -0.00367130267707
H            3.06343994147566        1.24515170166367       -1.74273504822828
H            2.44200985069377        2.48620461925462        0.29700881163240
H            1.22581488128245        4.60316900531304        0.18228426493989
H           -1.22773435737549        4.60306584301775       -0.16953999504204
H           -2.44307912287126        2.48586356743970       -0.28889843581322
H           -3.06639793625657       -1.24267142814248       -1.74317724354241
