48
 energy: -82.908752024362 gnorm: 0.000063564313 xtb: 6.7.1 (edcfbbe)
N           -6.24743049510772        0.00025027629728       -3.42616914548581
C           -5.68293273056505        0.00023714658280       -2.42963527828224
C           -4.98114043046718        0.00017530148107       -1.19910800912903
C           -5.68839841655938       -0.00001746258811        0.00000055609116
C           -4.98114747588535       -0.00014616815842        1.19911337538678
C           -5.68294756868886       -0.00030329597184        2.42963573465556
N           -6.24745114579762       -0.00045000543548        3.42616324518932
C           -3.58615731467264       -0.00016074149054        1.20047204828539
C           -2.88662470416532        0.00000443109847        0.00000901104273
C           -1.40478185228323        0.00001744481094        0.00001048614340
C           -0.71475297364989       -1.21791367928206        0.00001707199398
C           -1.39270115291315       -2.46529443981100        0.00003748613899
C           -0.70488593202942       -3.63925879405514        0.00007646131019
C            0.70478622850309       -3.63928082639955        0.00009535851408
C            1.39264992443363       -2.46533896960480        0.00007089969829
C            0.71474445341036       -1.21792999994076        0.00002884250056
C            1.40478381117333        0.00000334668833        0.00000082500838
C            2.88663175362904        0.00004240823245       -0.00000630578948
C            3.58616694411273        0.00025498496167        1.20045539110459
C            4.98115614212043        0.00020037100065        1.19909385191347
C            5.68295197589953        0.00049110185054        2.42961978699081
N            6.24745103948414        0.00037728018540        3.42615017860219
C            5.68840446634513        0.00002986116177       -0.00002074077239
C            4.98114371417299       -0.00021227716445       -1.19912793846362
C            5.68292614719313       -0.00046814851451       -2.42966180048404
N            6.24741549171966       -0.00064853258726       -3.42620072322323
C            3.58615466466736       -0.00017493316918       -1.20047512367594
C            0.71475123668774        1.21793224243440       -0.00002081388556
C            1.39270031589079        2.46531292686975       -0.00006626088524
C            0.70487952415666        3.63927406873078       -0.00008380647468
C           -0.70479333023498        3.63929223085895       -0.00005415709431
C           -1.39265267942687        2.46534922203902       -0.00001207272652
C           -0.71474465373825        1.21794481628862        0.00000109890614
C           -3.58615043942572        0.00018152069213       -1.20045812737995
H           -6.76825244024033       -0.00008589713447       -0.00000268785819
H           -3.04962527449957       -0.00024986058588        2.13803666499859
H           -2.47300889237602       -2.46781849629644        0.00003022529461
H           -1.23300430131312       -4.58079812885462        0.00007313351989
H            1.23286622698506       -4.58084244951684        0.00010537266285
H            2.47295579921109       -2.46790850152736        0.00007404142381
H            3.04963554983397        0.00046177030301        2.13801981478345
H            6.76825823240499        0.00010469368204       -0.00002628274928
H            3.04961382743418       -0.00030961055433       -2.13803417340574
H            2.47300809052288        2.46783624541791       -0.00007606330961
H            1.23299641526723        4.58081345330063       -0.00009586041025
H           -1.23287559319867        4.58085165803604       -0.00004470015416
H           -2.47295855064640        2.46791156400026        0.00000457725089
H           -3.04961262736744        0.00026485162590       -2.13801946778135
