48
 energy: -82.846266249062 gnorm: 0.000118968439 xtb: 6.7.1 (edcfbbe)
N           -6.24530551127688       -2.10083180994244       -2.71206209477578
C           -5.68561528710361       -1.48561934854893       -1.92445547044077
C           -4.98792425331003       -0.73313648465080       -0.94813670043966
C           -5.69994305315336       -0.00029908301194       -0.00027384180850
C           -4.98871108574606        0.73263685162900        0.94809612416262
C           -5.68733951322936        1.48484816406328        1.92398108022183
N           -6.24807515998769        2.09953193550523        2.71121129214405
C           -3.59645606249356        0.73590275732685        0.94951223859647
C           -2.88233445152176        0.00008926566270        0.00063417351273
C           -1.42146009091550        0.00022630003647        0.00082041677002
C           -0.71252478736866       -1.24018476629475        0.07390366400410
C           -1.37361389036927       -2.46042194317326        0.22917242292420
C           -0.68267396663982       -3.67140912796099        0.21467408159547
C            0.68242966393812       -3.67759000838325        0.03653657123161
C            1.37355680639299       -2.47052726806367       -0.06074253949429
C            0.71270438027817       -1.24241695324638        0.01105539983463
C            1.42175821361800        0.00003950498544       -0.00049941127780
C            2.88259175379871        0.00001682768536       -0.00073827426829
C            3.59639251198012       -0.67066763476320        0.99552516484628
C            4.98861316328390       -0.66737431043486        0.99453419143778
C            5.68692591986939       -1.35295773176724        2.01855834886732
N            6.24755633047192       -1.91422255794132        2.84483769820465
C            5.70023196291605        0.00091817433727       -0.00018756942503
C            4.98858341718860        0.66869373709818       -0.99519306923932
C            5.68678848877207        1.35546646240758       -2.01846707773872
N            6.24713569502475        1.91832393786856       -2.84386395150954
C            3.59633418105397        0.67104600888015       -0.99677895900000
C            0.71282892067434        1.24260762176548       -0.01113930528167
C            1.37392348437478        2.47060609420149        0.06023385325666
C            0.68286376733785        3.67781193412049       -0.03568038719848
C           -0.68246631985581        3.67190374648687       -0.21207217498943
C           -1.37357126893866        2.46101464385273       -0.22636380972751
C           -0.71248383313540        1.24059636134840       -0.07244909742761
C           -3.59568134363427       -0.73600437768309       -0.94863511615153
H           -6.77933620683847       -0.00040855267471       -0.00063538082925
H           -3.06588130776753        1.29120376562086        1.70926789386192
H           -2.44338476282172       -2.47576311189289        0.37144292049638
H           -1.22748684425699       -4.59570020377178        0.32916856163802
H            1.22710794279367       -4.60762984796193       -0.01454225200784
H            2.44329152329498       -2.49577580915850       -0.20189009143692
H            3.06549421517709       -1.17391115786939        1.79049790750069
H            6.77962113794704        0.00135096220605        0.00012077053820
H            3.06546690805057        1.17407683409203       -1.79192033621096
H            2.44384256756061        2.49568939895357        0.19999481796822
H            1.22776352501591        4.60773625748230        0.01511110315732
H           -1.22730914281777        4.59632857347803       -0.32538920755171
H           -2.44351174977478        2.47660834612720       -0.36736161507048
H           -3.06444267605104       -1.29132409108442       -1.70791313431124
