48
 energy: -82.909299311045 gnorm: 0.000070366559 xtb: 6.7.1 (edcfbbe)
N           -6.24568902509829       -1.41563679411974       -3.12181382695973
C           -5.68297592852150       -1.00050463527163       -2.21474141486749
C           -4.98263484399170       -0.49210228190038       -1.09327682678684
C           -5.69086600207273        0.00001967821736       -0.00035635843731
C           -4.98318730694210        0.49227489554413        1.09285685150176
C           -5.68414164042537        1.00107958231353        2.21377318144041
N           -6.24747608533803        1.41670723458352        3.12024852503875
C           -3.58847049834185        0.49233025933147        1.09472377885029
C           -2.88575841735849        0.00005282897372        0.00037818609502
C           -1.40754961907087       -0.00009047216548        0.00061714672983
C           -0.71503881289459       -1.21833972736710        0.04715990825841
C           -1.38963911008427       -2.46517707180502        0.12885603363363
C           -0.70318398446056       -3.63985267301375        0.14851219608384
C            0.70411480245454       -3.64179734853198        0.08345408850212
C            1.39008019201881       -2.46796852902043        0.02907075567479
C            0.71476923623810       -1.21885849013931        0.03093299274535
C            1.40726809023097       -0.00032030075796        0.00022312858313
C            2.88569701823189       -0.00019661068164        0.00003506781481
C            3.58813269465790       -0.40762983854159        1.12879951570352
C            4.98286119672158       -0.40629741835007        1.12754374900229
C            5.68400211515570       -0.82607124515595        2.28463046264717
N            6.24740883952107       -1.16888595079210        3.22100669478433
C            5.69054043927309        0.00139348247601        0.00005634969471
C            4.98241970675180        0.40814880542845       -1.12748530426874
C            5.68297079439716        0.82921740263397       -2.28446448521134
N            6.24579666468796        1.17332701030838       -3.22073038861226
C            3.58769911435522        0.40795937139237       -1.12874937741440
C            0.71493756623254        1.21834423512422       -0.03014193549931
C            1.39040837813641        2.46735634700647       -0.02839665814832
C            0.70459015685467        3.64128433978854       -0.08236363412422
C           -0.70272294656117        3.63956915891708       -0.14686627735155
C           -1.38932078824789        2.46498411213197       -0.12722436409355
C           -0.71486010661962        1.21805513996225       -0.04594264162180
C           -3.58792675219665       -0.49203301271178       -1.09440319639651
H           -6.77066249094456       -0.00001079016740       -0.00059458130357
H           -3.05348833876097        0.87216368312922        1.95304708651913
H           -2.46831681318294       -2.47112312520982        0.17966902337228
H           -1.23169888927987       -4.57909859720402        0.21019785695910
H            1.23286561700821       -4.58292794251856        0.08147348273118
H            2.46883641273224       -2.47620883326647       -0.02016087111844
H            3.05293419570283       -0.72204599162069        2.01303939843354
H            6.77034805259275        0.00213616258777        0.00013261615291
H            3.05217942971527        0.72188007305514       -2.01297153094908
H            2.46917814438624        2.47547508892168        0.02039117008817
H            1.23348932141491        4.58232042557832       -0.08039000573659
H           -1.23114739854977        4.57888475149137       -0.20814694236778
H           -2.46801086283311        2.47111087248881       -0.17763486691311
H           -3.05248770414217       -0.87179896135114       -1.95247388842830
