  48
        -82.90929314
 N         -6.2451702268       -1.4414605741       -3.1114868101
 C         -5.6825980544       -1.0181049665       -2.2081910131
 C         -4.9826049642       -0.5003745506       -1.0907682887
 C         -5.6909524577       -0.0020449868       -0.0008288353
 C         -4.9834325066        0.4981052755        1.0888662004
 C         -5.6844002977        1.0136532598        2.2066377965
 N         -6.2478338315        1.4351011468        3.1104361687
 C         -3.5888020473        0.4993093259        1.0903662427
 C         -2.8858364500        0.0009426099       -0.0010770435
 C         -1.4077727923        0.0014421105       -0.0005406404
 C         -0.7148998587       -1.2168005414        0.0446331071
 C         -1.3888111942       -2.4640854900        0.1251821118
 C         -0.7018242222       -3.6384888307        0.1432237518
 C          0.7054356492       -3.6398553782        0.0778274074
 C          1.3908468337       -2.4656486838        0.0251289136
 C          0.7149026794       -1.2168814649        0.0288025865
 C          1.4070256391        0.0019061167        0.0010333307
 C          2.8855072036        0.0017714991        0.0008626747
 C          3.5879804965       -0.4053600778        1.1296012923
 C          4.9826649290       -0.4067860648        1.1272009685
 C          5.6835981541       -0.8275699618        2.2840322046
 N          6.2467072963       -1.1708177569        3.2205265636
 C          5.6900225674       -0.0017158198       -0.0011888651
 C          4.9818279930        0.4057705919       -1.1283683438
 C          5.6824797154        0.8235578727       -2.2865533959
 N          6.2449784523        1.1647527207       -3.2242593151
 C          3.5871762858        0.4078473751       -1.1286686212
 C          0.7145307586        1.2204054028       -0.0268938743
 C          1.3901132990        2.4693591505       -0.0211787404
 C          0.7043510101        3.6433876271       -0.0728908310
 C         -0.7028553495        3.6416351094       -0.1401142165
 C         -1.3894954635        2.4670172817       -0.1246324117
 C         -0.7152580726        1.2198819765       -0.0443673565
 C         -3.5879367453       -0.4986141293       -1.0925384653
 H         -6.7706948451       -0.0034421796       -0.0006348472
 H         -3.0539789701        0.8846243023        1.9462920343
 H         -2.4674222979       -2.4708659259        0.1767473638
 H         -1.2299774933       -4.5779870068        0.2041261396
 H          1.2345579833       -4.5807672380        0.0745868048
 H          2.4696148347       -2.4732210912       -0.0238594390
 H          3.0529437134       -0.7179034180        2.0144425640
 H          6.7698182918       -0.0038745758       -0.0023859884
 H          3.0514894229        0.7212197700       -2.0129425718
 H          2.4688331437        2.4770896797        0.0290227675
 H          1.2331107914        4.5844832417       -0.0674916286
 H         -1.2312086665        4.5810511106       -0.2004487610
 H         -2.4680463070        2.4734063521       -0.1777148855
 H         -3.0524303140       -0.8839518838       -1.9480538938
