  87
       -116.92239764
 C         -4.9264507171       -3.5156277416        1.3293090697
 C         -4.3739659034       -3.5206695134       -0.0979416901
 C         -2.9524153826       -3.0626560260       -0.1320550914
 C         -1.8112568454       -3.8494670738       -0.1587181844
 C         -1.7357179871       -5.3372149309       -0.2706985603
 C         -1.5063501124       -5.7755749433       -1.7190218095
 C         -0.7118553316       -2.9627698751       -0.1480202921
 C          0.6444306981       -3.3704620823       -0.1364839506
 C          1.7399150283       -2.5806081699       -0.1842958213
 N          1.7064679254       -1.1545611325       -0.4124884863
 C          3.0364966897       -0.6990309485       -0.0793046955
 C          3.3799449463        0.5997026096        0.0665568796
 C          2.5168573411        1.7233115397        0.0590951367
 N          1.1519524712        1.6716510543        0.0645392151
 C          0.7129614998        2.9642592392        0.1175722600
 C         -0.6436745460        3.3711040656        0.1018648873
 C         -1.7380870440        2.5817170376        0.1715055139
 N         -1.7008389116        1.1582321022        0.4157080957
 C         -3.0354707544        0.6992304840        0.1071656516
 C         -3.3785369105       -0.5998030435       -0.0360848985
 C         -2.5144248065       -1.7223385524       -0.0516942549
 N         -1.1496686388       -1.6708315907       -0.0706712534
 C         -3.8780585657        1.8507990369       -0.1010488117
 C         -5.3496665028        1.7595748550       -0.3350339617
 C         -6.0984764457        1.4941445706        0.9734156701
 C         -3.1081414194        2.9704965147       -0.0538478326
 C         -3.5355644260        4.3814085487       -0.2918519561
 C         -3.3630552578        4.7687422524       -1.7625814752
 C          1.8117416190        3.8514867402        0.1233849890
 C          1.7341312427        5.3411722394        0.2056016698
 C          1.4904735249        5.8083877212        1.6424295960
 C          2.9535416276        3.0647446914        0.1235179403
 C          4.3751192109        3.5238304128        0.1042878612
 C          4.9507611289        3.5023029942       -1.3135688604
 C          3.8740088513       -1.8527178356        0.1365213516
 C          5.3399114304       -1.7644984535        0.4059491998
 C          6.1204173053       -1.4938102712       -0.8826569630
 C          3.1056285130       -2.9720859986        0.0607524464
 C          3.5286380928       -4.3859024992        0.2893707147
 C          3.3235257283       -4.7950718085        1.7499792628
 Pt         0.0010885795       -0.0000200934       -0.0010294433
 H         -5.9627050986       -3.8481446138        1.3422592096
 H         -4.8761616221       -2.5144704216        1.7521551284
 H         -4.3403833079       -4.1796348532        1.9609589807
 H         -4.4402493015       -4.5308346461       -0.5056505097
 H         -4.9908702564       -2.8734511820       -0.7271320610
 H         -0.9256482152       -5.7198630588        0.3559107540
 H         -2.6657255399       -5.7761641950        0.0949955462
 H         -2.3178431070       -5.4213400638       -2.3510855769
 H         -0.5751635304       -5.3599383529       -2.0983155590
 H         -1.4587769911       -6.8606545199       -1.7897769548
 H          0.8079074352       -4.4306023896       -0.0191009073
 H          1.5438272639       -0.9865711356       -1.4189308143
 H          4.4186733778        0.8158923009        0.2625459808
 H         -0.8082806253        4.4292461828       -0.0303380861
 H         -1.5241038629        1.0025593612        1.4218898352
 H         -4.4199570920       -0.8165788012       -0.2158830630
 H         -5.5571152848        0.9536299964       -1.0422027493
 H         -5.7111545261        2.6893502980       -0.7755129450
 H         -7.1680868132        1.4196423277        0.7907068876
 H         -5.9231059931        2.3035369275        1.6789537815
 H         -5.7580039183        0.5662755170        1.4268261992
 H         -2.9432818556        5.0532919978        0.3328842873
 H         -4.5824518247        4.4993823853       -0.0069861091
 H         -3.9709059477        4.1260634268       -2.3951960315
 H         -3.6655035646        5.8013562649       -1.9219245493
 H         -2.3246122034        4.6574803328       -2.0643891994
 H          2.6673829236        5.7736389969       -0.1597567606
 H          0.9297603958        5.7104278125       -0.4363074602
 H          0.5563580556        5.3992364707        2.0214076006
 H          2.2963430382        5.4684292703        2.2892048968
 H          1.4407672438        6.8945487724        1.6904916280
 H          4.9831509317        2.8853204437        0.7509140230
 H          4.4336257956        4.5391283258        0.5004179450
 H          4.9124541285        2.4955321544       -1.7239930343
 H          4.3723914274        4.1551191904       -1.9636691474
 H          5.9855095757        3.8396608383       -1.3137374394
 H          5.6893933000       -2.6969201196        0.8505591986
 H          5.5314533286       -0.9623738226        1.1219075002
 H          7.1851129542       -1.4213692055       -0.6734917311
 H          5.9616622500       -2.2994542534       -1.5961534600
 H          5.7925584037       -0.5635622763       -1.3398837944
 H          2.9511770209       -5.0491232297       -0.3581930990
 H          4.5817535624       -4.4993774372        0.0265095618
 H          3.9152838415       -4.1606603897        2.4058344947
 H          3.6246707915       -5.8292958394        1.9008801542
 H          2.2782943242       -4.6904725248        2.0297855812
