  52
  -85.4431000996000       0.457974772507952      !
 C          5.8901110756       -2.9150653891        0.0465861129
 C          4.8574560456       -2.9672791980        0.9680827634
 C          3.8597527655       -2.0105163557        0.9525186900
 C          3.8869955348       -0.9948681947        0.0017309325
 N          2.8825822993       -0.0150076262       -0.0111254477
 C          3.0948918203        1.3527909963        0.0019062486
 C          4.2845160812        2.0626615110        0.0412432344
 C          4.2102827229        3.4433949720        0.0679678927
 C          2.9853153778        4.1052618113        0.0646037294
 C          1.7961481080        3.4029614977        0.0501216706
 C          1.8472560662        2.0159960834        0.0231727205
 C          0.8451075806        0.9891942827        0.0194758733
 C         -0.5492755227        1.0013656438        0.0219953037
 C         -1.2630377154       -0.2060595649       -0.0150552621
 C         -0.5346702452       -1.4151514802       -0.0654289045
 C          0.8515624108       -1.4586289906       -0.0598255874
 C          1.5280719769       -0.2486891054       -0.0020337786
 O         -1.1690598800       -2.6099076242       -0.1274051170
 C         -2.5240665346       -2.7182082051       -0.0871322573
 C         -2.9841539468       -4.0375607081       -0.1244897071
 C         -4.3322786776       -4.3031960478       -0.0698010907
 C         -5.2337397513       -3.2504174756        0.0323802884
 C         -4.7739488549       -1.9526494979        0.0616270464
 C         -3.4119035026       -1.6282321480       -0.0092844431
 B         -2.7868004366       -0.2070053729       -0.0127076512
 C         -3.4118511085        1.2143788221       -0.0170517904
 C         -4.7753733724        1.5377361620       -0.0701130840
 C         -5.2351622134        2.8353596028       -0.0463106608
 C         -4.3335617227        3.8905956841        0.0295375309
 C         -2.9848925933        3.6266295594        0.0655448622
 C         -2.5252460111        2.3068454862        0.0368380334
 O         -1.1702059531        2.1971623777        0.0628932732
 C          4.9201235221       -0.9481119548       -0.9289658596
 C          5.9186494743       -1.9041486768       -0.8994275273
 H          6.6711223160       -3.6599823326        0.0663900372
 H          4.8333493701       -3.7522083391        1.7093073699
 H          3.0633140917       -2.0352700048        1.6808929398
 H          5.2386110717        1.5578483058        0.0605557768
 H          5.1232907614        4.0197509571        0.0944499069
 H          2.9697485383        5.1849334206        0.0826531721
 H          0.8442066146        3.9095471026        0.0634805054
 H          1.3629504538       -2.4057657792       -0.1112476107
 H         -2.2556441285       -4.8310650988       -0.1923799339
 H         -4.6851218497       -5.3233923301       -0.0992260412
 H         -6.2934791942       -3.4514787088        0.0882453840
 H         -5.4946581568       -1.1566764953        0.1518290586
 H         -5.4971929848        0.7407568914       -0.1391945524
 H         -6.2958696385        3.0350184031       -0.0851399232
 H         -4.6871558470        4.9106333537        0.0531465197
 H         -2.2568932900        4.4220861292        0.1127115241
 H          4.9276979447       -0.1693616606       -1.6766807988
 H          6.7198603870       -1.8622054327       -1.6222413802
  52
  -85.4424928518000       0.240862832394566      !
 C          5.8767739117       -2.8728634943       -0.4740517558
 C          5.9053229213       -2.0543070153        0.6426305688
 C          4.9094679295       -1.1165373618        0.8468373754
 C          3.8791528385       -0.9872287625       -0.0788253757
 N          2.8769821466       -0.0218934622        0.1038091372
 C          3.0879732878        1.3304758916        0.3109600922
 C          4.2757445589        2.0322727717        0.4428174675
 C          4.1981438313        3.3984309239        0.6438724787
 C          2.9724192892        4.0564528148        0.7015407550
 C          1.7862392403        3.3670908365        0.5430959886
 C          1.8409129420        1.9946176338        0.3423041609
 C          0.8404733254        0.9846324979        0.1499590839
 C         -0.5517455079        1.0022501556        0.0752645795
 C         -1.2548295716       -0.2043918189       -0.0485208439
 C         -0.5331138415       -1.4156778818       -0.1132506692
 C          0.8526770942       -1.4559792507       -0.1088684321
 C          1.5234964041       -0.2468284755        0.0158564335
 O         -1.1776948231       -2.6061713063       -0.1953059806
 C         -2.5271428570       -2.7093954604       -0.0428145227
 C         -2.9993374904       -4.0218491420        0.0352445298
 C         -4.3389720520       -4.2626403378        0.2390843545
 C         -5.2202984710       -3.1962049993        0.3755287064
 C         -4.7536210924       -1.9042310255        0.2745815083
 C         -3.4034773817       -1.6115848200        0.0422470934
 B         -2.7745075561       -0.2040987787       -0.0866974329
 C         -3.3935909423        1.2057396982       -0.2376586464
 C         -4.7290061480        1.5032322967       -0.5404644279
 C         -5.1881412096        2.7968167549       -0.6519328604
 C         -4.3148523383        3.8612597807       -0.4577038295
 C         -2.9888350305        3.6166184937       -0.1837531359
 C         -2.5238821926        2.3023997952       -0.0916189176
 O         -1.1854378787        2.1931299289        0.1346929596
 C          3.8508492388       -1.8112593438       -1.2002170005
 C          4.8455607029       -2.7518666452       -1.3908923585
 H          6.6556466228       -3.6040379739       -0.6294142625
 H          6.7038361557       -2.1509291012        1.3633091306
 H          4.9170337364       -0.4905412736        1.7264342860
 H          5.2316986800        1.5341910051        0.3845943669
 H          5.1094915474        3.9667096562        0.7580119472
 H          2.9544274333        5.1235949113        0.8663144459
 H          0.8336809260        3.8719132359        0.5737029733
 H          1.3702418888       -2.3992471792       -0.1698779967
 H         -2.2891075815       -4.8301466879       -0.0499230037
 H         -4.6996862668       -5.2782370348        0.3083930813
 H         -6.2676080800       -3.3832027544        0.5622561801
 H         -5.4442106927       -1.0849865212        0.4023695470
 H         -5.4127491566        0.6865197228       -0.7129589452
 H         -6.2244542225        2.9873473304       -0.8895965812
 H         -4.6711482709        4.8778980396       -0.5344881278
 H         -2.2841019270        4.4236286139       -0.0531654024
 H          3.0558087776       -1.6981417783       -1.9219698418
 H          4.8205484396       -3.3863592726       -2.2644145609
  52
  -85.4421445957000       0.166618172553531      !
 C          5.8687188705       -2.8404225135       -0.6191769635
 C          5.9373343711       -2.0522015530        0.5173722200
 C          4.9435059364       -1.1291476499        0.7891321370
 C          3.8748028855       -0.9837608506       -0.0891341735
 N          2.8757830441       -0.0281898068        0.1534042467
 C          3.0875758043        1.3249482109        0.3577641349
 C          4.2753400435        2.0280649916        0.4815705068
 C          4.1978034439        3.3937530952        0.6865074411
 C          2.9719817151        4.0502953526        0.7559712656
 C          1.7854828351        3.3599824191        0.6041732556
 C          1.8402633181        1.9882188929        0.3988318053
 C          0.8389009610        0.9783059285        0.2106173951
 C         -0.5524893687        0.9969879955        0.1227667379
 C         -1.2553474022       -0.2097638678       -0.0007153434
 C         -0.5350794193       -1.4227525453       -0.0470119311
 C          0.8507571498       -1.4633177607       -0.0404561472
 C          1.5214584275       -0.2532019524        0.0758399361
 O         -1.1806007718       -2.6133618388       -0.1184589617
 C         -2.5330968012       -2.7117668975        0.0085119342
 C         -3.0095733433       -4.0217303201        0.1008051483
 C         -4.3547113320       -4.2567231358        0.2725348153
 C         -5.2377527044       -3.1868655094        0.3628809851
 C         -4.7656551305       -1.8975380237        0.2536408329
 C         -3.4089519287       -1.6112296378        0.0542523657
 B         -2.7735256372       -0.2070563783       -0.0761054223
 C         -3.3833251592        1.2015324986       -0.2699852791
 C         -4.7054300106        1.4962297032       -0.6285592657
 C         -5.1548178898        2.7885620358       -0.7853434437
 C         -4.2859144708        3.8542244368       -0.5788286767
 C         -2.9724078399        3.6117162897       -0.2480449599
 C         -2.5156925037        2.2983568516       -0.1134963001
 O         -1.1859715505        2.1890908940        0.1611437379
 C          3.8056643058       -1.7785840431       -1.2299830467
 C          4.7984497296       -2.7047643300       -1.4880233833
 H          6.6470209404       -3.5587373500       -0.8279321101
 H          6.7668610957       -2.1604879061        1.2003633738
 H          4.9838379295       -0.5271663911        1.6844575215
 H          5.2316088778        1.5319874913        0.4135581126
 H          5.1095094900        3.9627699266        0.7941702509
 H          2.9540238863        5.1167821209        0.9249610794
 H          0.8324808705        3.8633088085        0.6444295738
 H          1.3688844071       -2.4066279079       -0.0962368337
 H         -2.2989802820       -4.8325701213        0.0500727337
 H         -4.7192410630       -5.2703746453        0.3497871452
 H         -6.2908998338       -3.3691918910        0.5187561657
 H         -5.4581846783       -1.0750214606        0.3444361477
 H         -5.3843890146        0.6778497534       -0.8118515955
 H         -6.1793178556        2.9771055512       -1.0706781467
 H         -4.6345259896        4.8698973359       -0.6933446353
 H         -2.2702192132        4.4192914022       -0.1075033957
 H          2.9799070298       -1.6532070661       -1.9142595875
 H          4.7407917243       -3.3162210286       -2.3763482717
  52
  -85.4419425423000       0.134544222543951      !
 C          5.8625358819       -2.8549388530       -0.6228348365
 C          4.9120976678       -3.0964993241        0.3548371878
 C          3.9270722931       -2.1620305757        0.6194925664
 C          3.8819866643       -0.9785147651       -0.1097282048
 N          2.8770800597       -0.0270253563        0.1235953180
 C          3.0882963526        1.3331259117        0.2693173774
 C          4.2770850719        2.0271033018        0.4321438581
 C          4.2033808098        3.3952520147        0.6192421972
 C          2.9797665886        4.0595241486        0.6483540299
 C          1.7912156492        3.3710986119        0.5035020639
 C          1.8422026671        1.9962172748        0.3178711639
 C          0.8401184366        0.9777302832        0.1887777953
 C         -0.5515590004        0.9977504853        0.1102825800
 C         -1.2586192682       -0.2098097036        0.0274772978
 C         -0.5405488437       -1.4232712372       -0.0188450277
 C          0.8455630080       -1.4662967394       -0.0282366935
 C          1.5209735202       -0.2596662459        0.0937480379
 O         -1.1885786485       -2.6135174595       -0.0754052139
 C         -2.5382766627       -2.7091200939        0.0826522608
 C         -3.0143580494       -4.0172068763        0.1995215745
 C         -4.3552799057       -4.2479518514        0.4070281257
 C         -5.2342461115       -3.1757528222        0.5082079753
 C         -4.7634396712       -1.8884666293        0.3719009637
 C         -3.4117126569       -1.6070622481        0.1361320239
 B         -2.7773833653       -0.2061885968       -0.0289611054
 C         -3.3871920773        1.1973620502       -0.2539693338
 C         -4.7141994492        1.4829683147       -0.6015481545
 C         -5.1626418755        2.7702432682       -0.7974610204
 C         -4.2871840736        3.8395923939       -0.6444696391
 C         -2.9694338606        3.6051197661       -0.3248355764
 C         -2.5143064027        2.2961801716       -0.1486592432
 O         -1.1814660617        2.1924895670        0.1129010633
 C          4.8386711938       -0.7367657962       -1.0921116918
 C          5.8261670156       -1.6709417494       -1.3408248807
 H          6.6300130426       -3.5866452473       -0.8251683316
 H          4.9412005177       -4.0160286101        0.9203966504
 H          3.1994857906       -2.3381130572        1.3971054516
 H          5.2283464051        1.5162661396        0.4293914746
 H          5.1148886811        3.9591126754        0.7523752996
 H          2.9646848227        5.1288982665        0.7984989563
 H          0.8397760059        3.8774155868        0.5433044124
 H          1.3563764275       -2.4100885929       -0.1214570982
 H         -2.3064304005       -4.8297986805        0.1403612752
 H         -4.7188808387       -5.2600897884        0.5058614859
 H         -6.2829066807       -3.3545319419        0.6951523261
 H         -5.4517651379       -1.0634634636        0.4728400738
 H         -5.3979895626        0.6603677593       -0.7435408166
 H         -6.1912912315        2.9518042844       -1.0722505126
 H         -4.6346180269        4.8515512958       -0.7910507918
 H         -2.2633452506        4.4152922531       -0.2245387324
 H          4.7911508205        0.1775859312       -1.6646309786
 H          6.5633918906       -1.4780924512       -2.1061088142
