  52
  -85.7780481500000       0.164825531340211      !
 C          5.8675199734       -2.9314178175       -0.1427121889
 C          4.8531613839       -3.0251618897        0.7958044839
 C          3.8659285007       -2.0589270420        0.8548757058
 C          3.8844062091       -0.9925670007       -0.0388427032
 N          2.8833329445       -0.0106557311        0.0147149439
 C          3.0964597313        1.3553084503        0.0779494183
 C          4.2868138374        2.0622280125        0.1443760781
 C          4.2135208328        3.4408229872        0.2258458513
 C          2.9888408393        4.1031318357        0.2496660176
 C          1.7990604317        3.4029216560        0.2069282444
 C          1.8492421308        2.0180620593        0.1245479446
 C          0.8461838195        0.9930346715        0.0811193015
 C         -0.5480779501        1.0053095803        0.0681376859
 C         -1.2569395129       -0.2029348790       -0.0035659940
 C         -0.5315642512       -1.4117824367       -0.0792233774
 C          0.8543473610       -1.4533748533       -0.0801256213
 C          1.5285191274       -0.2443108227        0.0166406041
 O         -1.1700327812       -2.6038181574       -0.1678704907
 C         -2.5223726570       -2.7130744767       -0.0630200996
 C         -2.9889063416       -4.0302934575       -0.0659877858
 C         -4.3330666111       -4.2881420553        0.0729760725
 C         -5.2233382296       -3.2323811807        0.2312819100
 C         -4.7595719658       -1.9356201290        0.2178010097
 C         -3.4042708475       -1.6216528332        0.0485733464
 B         -2.7787356902       -0.2052019753       -0.0161828823
 C         -3.4047175713        1.2100077790       -0.0989886235
 C         -4.7591519988        1.5193340656       -0.2866895628
 C         -5.2249906637        2.8146444729       -0.3206692858
 C         -4.3388601624        3.8747763037       -0.1659548853
 C         -2.9960645066        3.6218756680       -0.0090908793
 C         -2.5273472675        2.3054385610        0.0092559044
 O         -1.1762058604        2.1978116457        0.1291183759
 C          4.9010488534       -0.9019561635       -0.9846403060
 C          5.8894937464       -1.8677141238       -1.0293541363
 H          6.6388135806       -3.6857038604       -0.1832947747
 H          4.8346084854       -3.8507663112        1.4916035163
 H          3.0849149375       -2.1163350431        1.5981391452
 H          5.2404522663        1.5560091702        0.1436957500
 H          5.1268693650        4.0151579165        0.2759072217
 H          2.9742574075        5.1811590272        0.3115911374
 H          0.8473211843        3.9091498568        0.2404890547
 H          1.3676720498       -2.3971667700       -0.1623686946
 H         -2.2698234512       -4.8286968227       -0.1686576763
 H         -4.6907392078       -5.3071162201        0.0724161950
 H         -6.2764956174       -3.4310450088        0.3648985043
 H         -5.4634720545       -1.1316268150        0.3625693934
 H         -5.4596784992        0.7119527671       -0.4286627129
 H         -6.2772019765        3.0095404496       -0.4679016501
 H         -4.6990904065        4.8926392518       -0.1819529159
 H         -2.2809260195        4.4240925129        0.0910912405
 H          4.9020239551       -0.0824539819       -1.6876306487
 H          6.6758372461       -1.7936627194       -1.7659098908
  52
  -85.7780454700000       0.164358754559824      !
 C          5.8679606717       -2.9356391359        0.1324893636
 C          5.8818850874       -1.9008722252        1.0528611991
 C          4.8925861530       -0.9351667758        1.0317771333
 C          3.8837054842       -0.9955363637        0.0752530731
 N          2.8829423278       -0.0125522721        0.0451950461
 C          3.0966677758        1.3549521971        0.0367084824
 C          4.2872333646        2.0640960511        0.0107184949
 C          4.2142245976        3.4447906250       -0.0199069830
 C          2.9898286131        4.1077667580       -0.0333503300
 C          1.8001412124        3.4063849994       -0.0321462140
 C          1.8501859062        2.0194011696       -0.0015634626
 C          0.8468880631        0.9939035762       -0.0130408932
 C         -0.5473497090        1.0070803854       -0.0249625391
 C         -1.2570705360       -0.2026338959       -0.0192527059
 C         -0.5337303099       -1.4142000569        0.0233925391
 C          0.8519764144       -1.4568631983        0.0516415273
 C          1.5281586000       -0.2454464340        0.0137441578
 O         -1.1747847819       -2.6080711120        0.0500491121
 C         -2.5234162338       -2.7112973584       -0.1008337180
 C         -2.9905903928       -4.0265150598       -0.1674790680
 C         -4.3293221623       -4.2754801219       -0.3637786757
 C         -5.2129818707       -3.2126237618       -0.5111231281
 C         -4.7495633352       -1.9185096027       -0.4270237091
 C         -3.4010710641       -1.6150292323       -0.1960394826
 B         -2.7784260263       -0.2041230808       -0.0468335979
 C         -3.4067924139        1.2057305096        0.0875233193
 C         -4.7650920449        1.5057385116        0.2611527020
 C         -5.2321876812        2.7981390151        0.3480124934
 C         -4.3434596340        3.8640762626        0.2645191293
 C         -2.9975128493        3.6187035962        0.1235278548
 C         -2.5278273240        2.3045016157        0.0505263481
 O         -1.1744333397        2.2015419342       -0.0470549000
 C          3.8739857615       -2.0325358600       -0.8527064630
 C          4.8613123547       -2.9996245776       -0.8166337166
 H          6.6396767445       -3.6901472338        0.1546596486
 H          6.6629558772       -1.8491276475        1.7968577368
 H          4.8874134137       -0.1389357634        1.7609835666
 H          5.2411840687        1.5586900493        0.0031981572
 H          5.1278280972        4.0205786054       -0.0372486247
 H          2.9754971578        5.1874055699       -0.0542580534
 H          0.8485916405        3.9132222029       -0.0586254899
 H          1.3632309680       -2.4037310893        0.1072761922
 H         -2.2760230914       -4.8301117574       -0.0735779883
 H         -4.6874335977       -5.2928462388       -0.4169375615
 H         -6.2605122947       -3.4038282480       -0.6916002460
 H         -5.4469428433       -1.1070644048       -0.5625890897
 H         -5.4674369120        0.6921749714        0.3484307247
 H         -6.2872905530        2.9863598192        0.4818682775
 H         -4.7045331525        4.8801075909        0.3231225189
 H         -2.2809316055        4.4246194133        0.0780032692
 H          3.0996046966       -2.0664850705       -1.6040785719
 H          4.8485614071       -3.8030108441       -1.5381510149
  52
  -85.7780404100000       0.163481053123041      !
 C          5.8737613493       -2.9257959252       -0.1693735842
 C          4.8496018037       -2.9284079672       -1.1017971574
 C          3.8601266893       -1.9640443195       -1.0538055845
 C          3.8855749098       -0.9924043219       -0.0579718918
 N          2.8833304835       -0.0118478415       -0.0037272474
 C          3.0956113999        1.3538794595        0.0701213570
 C          4.2847937872        2.0657209379        0.0669406884
 C          4.2098833032        3.4455932670        0.1227445015
 C          2.9848663983        4.1056277951        0.1727995860
 C          1.7960646179        3.4029126710        0.1537588642
 C          1.8480414014        2.0168479478        0.0971943021
 C          0.8457587152        0.9918095338        0.0407700626
 C         -0.5484355569        1.0039887762        0.0380457149
 C         -1.2579922238       -0.2051188231       -0.0064183071
 C         -0.5323453147       -1.4157232740       -0.0405722208
 C          0.8536703120       -1.4574110700       -0.0528004652
 C          1.5284939819       -0.2451146899       -0.0245172590
 O         -1.1707315038       -2.6105185496       -0.0727401065
 C         -2.5228323975       -2.7154509344        0.0379052693
 C         -2.9886462637       -4.0319966202        0.0870982021
 C         -4.3328512452       -4.2852190539        0.2330107798
 C         -5.2241149052       -3.2245716225        0.3458722668
 C         -4.7607264396       -1.9290447771        0.2837410198
 C         -3.4050888932       -1.6207716496        0.1065553027
 B         -2.7799867048       -0.2069114792       -0.0048159949
 C         -3.4057485706        1.2073761650       -0.1100918972
 C         -4.7608357601        1.5153075087       -0.2947406082
 C         -5.2255885682        2.8105443334       -0.3465356779
 C         -4.3379163777        3.8723058287       -0.2136724009
 C         -2.9945766698        3.6202847210       -0.0602582810
 C         -2.5271741777        2.3038132261       -0.0239913725
 O         -1.1754446239        2.1974459372        0.0890530199
 C          4.9117167153       -0.9940337132        0.8818457465
 C          5.9029160234       -1.9560185965        0.8188800836
 H          6.6470544183       -3.6777850179       -0.2125683550
 H          4.8253059894       -3.6803399482       -1.8765565545
 H          3.0722393379       -1.9488655922       -1.7917837877
 H          5.2389752149        1.5637955485        0.0111407829
 H          5.1224494779        4.0232175262        0.1241948085
 H          2.9690957913        5.1845062437        0.2182406593
 H          0.8435855696        3.9081137895        0.1774888174
 H          1.3661324368       -2.4051429209       -0.0667945770
 H         -2.2687217158       -4.8333134906        0.0183259945
 H         -4.6900106474       -5.3036734202        0.2721251364
 H         -6.2778159149       -3.4183873296        0.4824116486
 H         -5.4658551473       -1.1206040816        0.3927518944
 H         -5.4634625902        0.7068523941       -0.4188933934
 H         -6.2785503103        3.0041476031       -0.4898156063
 H         -4.6973294822        4.8900960986       -0.2432166565
 H         -2.2777808102        4.4229296129        0.0230236196
 H          4.9179148514       -0.2496483040        1.6638339090
 H          6.6962141099       -1.9545249998        1.5518191148
  52
  -85.7780373500000       0.162952545150119      !
 C          5.8643804303       -2.9315235826       -0.1761726047
 C          5.8672986129       -2.0123790368        0.8598531337
 C          4.8801755158       -1.0474460357        0.9390934277
 C          3.8840505499       -0.9926290220       -0.0307884449
 N          2.8832698388       -0.0117208767        0.0423876771
 C          3.0948206732        1.3482312230        0.1872561724
 C          4.2846010930        2.0559563225        0.2534152405
 C          4.2098994698        3.4315039125        0.3753887808
 C          2.9846732624        4.0914321410        0.4219448003
 C          1.7959428042        3.3938031498        0.3339612725
 C          1.8475080351        2.0119605270        0.2116109097
 C          0.8458740204        0.9927710742        0.0828657778
 C         -0.5481622427        1.0059018735        0.0520818333
 C         -1.2560295543       -0.2003634816       -0.0544231154
 C         -0.5299918529       -1.4089106456       -0.1284606977
 C          0.8558887568       -1.4505619113       -0.1192150238
 C          1.5293377127       -0.2410647086       -0.0227313687
 O         -1.1676360143       -2.6010684807       -0.2207336719
 C         -2.5202903382       -2.7108540602       -0.1218727494
 C         -2.9861027583       -4.0283258124       -0.1268332758
 C         -4.3306337275       -4.2869074031        0.0060404255
 C         -5.2221697662       -3.2315326064        0.1592746108
 C         -4.7589653760       -1.9345560137        0.1483174087
 C         -3.4029804751       -1.6198141636       -0.0138160602
 B         -2.7777234423       -0.2028647011       -0.0686238732
 C         -3.4034794701        1.2136250929       -0.1281360541
 C         -4.7566484175        1.5266388652       -0.3178218225
 C         -5.2222568901        2.8224765255       -0.3298158800
 C         -4.3370425706        3.8794644899       -0.1505489030
 C         -2.9953827458        3.6233242421        0.0105136593
 C         -2.5270943823        2.3066511597        0.0081322980
 O         -1.1771085705        2.1964116267        0.1385068538
 C          3.8850760340       -1.9131671789       -1.0742625354
 C          4.8708584885       -2.8803192428       -1.1396880716
 H          6.6341721707       -3.6863149976       -0.2320805705
 H          6.6374774088       -2.0520752405        1.6158376775
 H          4.8658728519       -0.3424838148        1.7568076432
 H          5.2391412727        1.5543274051        0.2008016033
 H          5.1227432184        4.0058915390        0.4329188873
 H          2.9690170769        5.1666870907        0.5217235988
 H          0.8440333929        3.9000724395        0.3564653075
 H          1.3693401042       -2.3967376404       -0.1648072346
 H         -2.2660302216       -4.8263210701       -0.2249194540
 H         -4.6876909534       -5.3061193400        0.0045741151
 H         -6.2759643964       -3.4307142233        0.2867287089
 H         -5.4641225870       -1.1308218096        0.2881920061
 H         -5.4566133777        0.7221744515       -0.4781532206
 H         -6.2736893717        3.0201846255       -0.4783207077
 H         -4.6970236419        4.8976007132       -0.1502995530
 H         -2.2807938525        4.4233800396        0.1297264973
 H          3.1204452793       -1.8561327937       -1.8342582197
 H          4.8669686114       -3.5929547139       -1.9510027629
  52
  -85.7778681200000       0.136234914934130      !
 C          5.8890772131       -2.9172273652        0.0417019136
 C          4.8565620958       -2.9702953430        0.9633065426
 C          3.8591980224       -2.0131565464        0.9491841896
 C          3.8866401087       -0.9962572993       -0.0002596309
 N          2.8825747978       -0.0160219959       -0.0116424848
 C          3.0953751916        1.3516822414        0.0031676790
 C          4.2852597268        2.0610751592        0.0432414777
 C          4.2115242398        3.4417983536        0.0718111734
 C          2.9867928654        4.1041063740        0.0695365812
 C          1.7973723004        3.4022505026        0.0543276542
 C          1.8479801242        2.0153039147        0.0255293853
 C          0.8454642550        0.9888657797        0.0206427874
 C         -0.5489139572        1.0015316127        0.0234188432
 C         -1.2631138205       -0.2055884572       -0.0151108693
 C         -0.5351870212       -1.4148724249       -0.0672145687
 C          0.8510309572       -1.4588522473       -0.0619080225
 C          1.5279826624       -0.2492317285       -0.0026273239
 O         -1.1700140937       -2.6093187016       -0.1306667821
 C         -2.5250524060       -2.7171888569       -0.0903039902
 C         -2.9856175477       -4.0363262759       -0.1293328649
 C         -4.3338276655       -4.3015526294       -0.0747643022
 C         -5.2348949877       -3.2485888118        0.0289695085
 C         -4.7746354677       -1.9510250283        0.0598591068
 C         -3.4124865197       -1.6270001611       -0.0108567104
 B         -2.7868763561       -0.2059933614       -0.0125017267
 C         -3.4114199342        1.2156184139       -0.0148518622
 C         -4.7748356969        1.5395326739       -0.0672488534
 C         -5.2341568300        2.8372874568       -0.0416451856
 C         -4.3321663805        3.8920999929        0.0354477655
 C         -2.9835854667        3.6276048269        0.0708721845
 C         -2.5244153528        2.3076959918        0.0403347325
 O         -1.1694101046        2.1974946290        0.0660107065
 C          4.9196246512       -0.9486348448       -0.9310717171
 C          5.9178140595       -1.9050663605       -0.9029742960
 H          6.6698256753       -3.6624487257        0.0603826080
 H          4.8323024858       -3.7561988007        1.7034930273
 H          3.0628758385       -2.0385924361        1.6776622929
 H          5.2391776185        1.5558961675        0.0617195626
 H          5.1247426652        4.0177926858        0.0989005411
 H          2.9716148458        5.1837585684        0.0890214367
 H          0.8456141579        3.9091577659        0.0685228979
 H          1.3620717499       -2.4061024776       -0.1146750621
 H         -2.2574029436       -4.8299999163       -0.1984016652
 H         -4.6870403373       -5.3215829259       -0.1054821943
 H         -6.2946965687       -3.4493456412        0.0847505054
 H         -5.4950448368       -1.1549151728        0.1512416031
 H         -5.4969518557        0.7429035387       -0.1372633808
 H         -6.2947995214        3.0373762951       -0.0800265322
 H         -4.6853920065        4.9122316095        0.0604713232
 H         -2.2552939305        4.4227381391        0.1189688386
 H          4.9273486860       -0.1688957126       -1.6777538770
 H          6.7189155792       -1.8624499749       -1.6258700196
  52
  -85.7775062500000       9.289332056617366E-002 !
 C          5.8743774733       -2.8769185834       -0.4791347405
 C          5.9041104978       -2.0591909598        0.6381238018
 C          4.9090626721       -1.1208239177        0.8435176339
 C          3.8783715528       -0.9900751243       -0.0815239863
 N          2.8770176448       -0.0241221319        0.1023207048
 C          3.0891274763        1.3279388349        0.3103404404
 C          4.2774912906        2.0287508957        0.4420967348
 C          4.2010165822        3.3948210938        0.6441782041
 C          2.9758148570        4.0537185063        0.7029491514
 C          1.7890379830        3.3653593644        0.5446136440
 C          1.8425810798        1.9929910918        0.3428025316
 C          0.8412870971        0.9838944242        0.1502400603
 C         -0.5509561608        1.0026082451        0.0762709153
 C         -1.2550069443       -0.2034172987       -0.0480261813
 C         -0.5342318025       -1.4151961882       -0.1140003384
 C          0.8515306202       -1.4565380807       -0.1103565281
 C          1.5233190226       -0.2479802637        0.0148983372
 O         -1.1797460966       -2.6051471440       -0.1965856194
 C         -2.5291929156       -2.7074712772       -0.0434780710
 C         -3.0023304072       -4.0196271861        0.0338746180
 C         -4.3420405342       -4.2595627429        0.2382261212
 C         -5.2224981173       -3.1925668466        0.3758918431
 C         -4.7549049195       -1.9008699627        0.2756390484
 C         -3.4046613802       -1.6090666979        0.0428250435
 B         -2.7747036044       -0.2019590642       -0.0854246996
 C         -3.3928080226        1.2084511859       -0.2350506086
 C         -4.7281546983        1.5071621330       -0.5369578541
 C         -5.1863777334        2.8011701509       -0.6472568406
 C         -4.3121926941        3.8648185002       -0.4527059976
 C         -2.9862190832        3.6189867251       -0.1796108424
 C         -2.5222036139        2.3043540960       -0.0886639451
 O         -1.1837259734        2.1939187949        0.1368838345
 C          3.8488774303       -1.8132736274       -1.2034959066
 C          4.8427865223       -2.7544872392       -1.3953597599
 H          6.6526228118       -3.6085634348       -0.6354240000
 H          6.7029195266       -2.1569315900        1.3583235708
 H          4.9175470607       -0.4954695282        1.7235625031
 H          5.2330422096        1.5299958672        0.3830245744
 H          5.1128478972        3.9623348098        0.7582616413
 H          2.9587064963        5.1207544093        0.8685028157
 H          0.8368737976        3.8708724386        0.5760728301
 H          1.3683575453       -2.4001488459       -0.1723123341
 H         -2.2927497129       -4.8283944082       -0.0522402695
 H         -4.7034797955       -5.2749389562        0.3069858556
 H         -6.2698518729       -3.3789154537        0.5630202328
 H         -5.4448153223       -1.0812012930        0.4043722789
 H         -5.4125973017        0.6910865031       -0.7096922674
 H         -6.2226691411        2.9926481513       -0.8842524076
 H         -4.6677663276        4.8817784185       -0.5285735481
 H         -2.2808150874        4.4253744803       -0.0488009485
 H          3.0535529784       -1.6990393498       -1.9247598170
 H          4.8168524270       -3.3883294934       -2.2693271306
  52
  -85.7771276300000       6.222756153935582E-002 !
 C          5.8661826854       -2.8445208876       -0.6243740622
 C          5.9360776359       -2.0570284532        0.5126020931
 C          4.9431151118       -1.1333799855        0.7855047348
 C          3.8739985102       -0.9866573202       -0.0920358034
 N          2.8758518885       -0.0304703962        0.1516677798
 C          3.0887973024        1.3223842140        0.3567050602
 C          4.2771705046        2.0245227770        0.4802189615
 C          4.2007965981        3.3901473943        0.6860137590
 C          2.9755170177        4.0475812684        0.7566007308
 C          1.7884022007        3.3582622303        0.6051020535
 C          1.8420151321        1.9865797583        0.3989127375
 C          0.8397715622        0.9775415489        0.2106970402
 C         -0.5516563791        0.9973351366        0.1236895396
 C         -1.2555070119       -0.2088076322       -0.0000893244
 C         -0.5361909251       -1.4223165599       -0.0475374293
 C          0.8496180146       -1.4639407106       -0.0418344563
 C          1.5213101751       -0.2544052433        0.0747796404
 O         -1.1826615161       -2.6123913635       -0.1193059544
 C         -2.5351559952       -2.7098422147        0.0084151838
 C         -3.0125749240       -4.0194971662        0.1002148326
 C         -4.3577886559       -4.2535679310        0.2726091578
 C         -5.2399607535       -3.1830922630        0.3641191076
 C         -4.7669466348       -1.8940598264        0.2553628821
 C         -3.4101451367       -1.6086658710        0.0553333455
 B         -2.7737275209       -0.2048994996       -0.0745699276
 C         -3.3825697281        1.2042682711       -0.2672480029
 C         -4.7046637561        1.5001851224       -0.6248561439
 C         -5.1531607789        2.7929522183       -0.7806035628
 C         -4.2833226875        3.8578297976       -0.5739751779
 C         -2.9698037306        3.6141250526       -0.2441211415
 C         -2.5140085563        2.3003385062       -0.1106261100
 O         -1.1842073457        2.1898969338        0.1631537518
 C          3.8035728830       -1.7807490282       -1.2333152575
 C          4.7954982132       -2.7075312434       -1.4924995579
 H          6.6438125360       -3.5633037710       -0.8340214077
 H          6.7659295993       -2.1663524689        1.1950326139
 H          4.9844405773       -0.5319621744        1.6811634154
 H          5.2330204050        1.5277579361        0.4113399641
 H          5.1129999506        3.9584058380        0.7934694913
 H          2.9584724826        5.1139807101        0.9262349909
 H          0.8358081047        3.8622899766        0.6462273389
 H          1.3669932092       -2.4076117011       -0.0984855220
 H         -2.3026301007       -4.8308474015        0.0485756679
 H         -4.7230441220       -5.2669873892        0.3494770715
 H         -6.2931531219       -3.3647094858        0.5205156447
 H         -5.4587951205       -1.0710704125        0.3470610702
 H         -5.3843552982        0.6824314611       -0.8082287333
 H         -6.1776871522        2.9824453031       -1.0652134906
 H         -4.6312288634        4.8738357293       -0.6876790617
 H         -2.2669163511        4.4210816211       -0.1035196142
 H          2.9775026158       -1.6543365019       -1.9170232627
 H          4.7368437094       -3.3184154627       -2.3811530151
  52
  -85.7769764200000       5.302631878714602E-002 !
 C          5.8612514666       -2.8564791838       -0.6278407221
 C          4.9110944261       -3.0986455484        0.3499547051
 C          3.9265123211       -2.1640744686        0.6158950656
 C          3.8815854105       -0.9798307656       -0.1121528350
 N          2.8771164782       -0.0282011514        0.1224798288
 C          3.0888871694        1.3317296347        0.2694497033
 C          4.2779920625        2.0251116924        0.4325036062
 C          4.2048608211        3.3931040109        0.6209653939
 C          2.9815016377        4.0577961042        0.6511888699
 C          1.7926433599        3.3699482597        0.5061148018
 C          1.8430554436        1.9952302191        0.3191224787
 C          0.8405486403        0.9772373283        0.1894141958
 C         -0.5511509379        0.9978445415        0.1114653487
 C         -1.2586857251       -0.2093748351        0.0277488715
 C         -0.5410783877       -1.4230538235       -0.0200298735
 C          0.8450139249       -1.4665784715       -0.0299882115
 C          1.5209134358       -0.2603154370        0.0929187660
 O         -1.1895664390       -2.6130065170       -0.0775067107
 C         -2.5392395906       -2.7082684399        0.0809682358
 C         -3.0157569230       -4.0162940236        0.1967406755
 C         -4.3566848297       -4.2467497136        0.4045294170
 C         -5.2352190392       -3.1743277084        0.5070886514
 C         -4.7639916392       -1.8870817897        0.3718602145
 C         -3.4122506664       -1.6059430887        0.1358544661
 B         -2.7774696248       -0.2051416369       -0.0281110801
 C         -3.3868480891        1.1988515814       -0.2515181457
 C         -4.7138818704        1.4852837252       -0.5983156518
 C         -5.1619257541        2.7729137260       -0.7928019654
 C         -4.2860176526        3.8417918281       -0.6390980980
 C         -2.9682328251        3.6065239730       -0.3201919113
 C         -2.5135193276        2.2972461619       -0.1454658002
 O         -1.1806183246        2.1928114272        0.1154886259
 C          4.8379870530       -0.7374735939       -1.0946619026
 C          5.8250457410       -1.6717683504       -1.3446607314
 H          6.6283833911       -3.5882690870       -0.8311789401
 H          4.9400735805       -4.0187372122        0.9146051529
 H          3.1991553436       -2.3406492721        1.3936110319
 H          5.2290646909        1.5139286323        0.4288924471
 H          5.1166259090        3.9565000914        0.7543038654
 H          2.9668692278        5.1270285720        0.8023833971
 H          0.8414047730        3.8765750252        0.5467715602
 H          1.3554455485       -2.4104661269       -0.1243232941
 H         -2.3081500527       -4.8290872460        0.1365191514
 H         -4.7206198997       -5.2588502536        0.5025122563
 H         -6.2838743983       -3.3529046778        0.6942553080
 H         -5.4519759744       -1.0619251936        0.4738652233
 H         -5.3980275675        0.6630730285       -0.7408524687
 H         -6.1906122304        2.9551201885       -1.0670246920
 H         -4.6331354923        4.8540207165       -0.7845597361
 H         -2.2618089647        4.4163391417       -0.2193714631
 H          4.7905858450        0.1774540640       -1.6662702540
 H          6.5620519072       -1.4784423118       -2.1100350325
