  52
        -85.77804815
 C          5.8675199734       -2.9314178175       -0.1427121889
 C          4.8531613839       -3.0251618897        0.7958044839
 C          3.8659285007       -2.0589270420        0.8548757058
 C          3.8844062091       -0.9925670007       -0.0388427032
 N          2.8833329445       -0.0106557311        0.0147149439
 C          3.0964597313        1.3553084503        0.0779494183
 C          4.2868138374        2.0622280125        0.1443760781
 C          4.2135208328        3.4408229872        0.2258458513
 C          2.9888408393        4.1031318357        0.2496660176
 C          1.7990604317        3.4029216560        0.2069282444
 C          1.8492421308        2.0180620593        0.1245479446
 C          0.8461838195        0.9930346715        0.0811193015
 C         -0.5480779501        1.0053095803        0.0681376859
 C         -1.2569395129       -0.2029348790       -0.0035659940
 C         -0.5315642512       -1.4117824367       -0.0792233774
 C          0.8543473610       -1.4533748533       -0.0801256213
 C          1.5285191274       -0.2443108227        0.0166406041
 O         -1.1700327812       -2.6038181574       -0.1678704907
 C         -2.5223726570       -2.7130744767       -0.0630200996
 C         -2.9889063416       -4.0302934575       -0.0659877858
 C         -4.3330666111       -4.2881420553        0.0729760725
 C         -5.2233382296       -3.2323811807        0.2312819100
 C         -4.7595719658       -1.9356201290        0.2178010097
 C         -3.4042708475       -1.6216528332        0.0485733464
 B         -2.7787356902       -0.2052019753       -0.0161828823
 C         -3.4047175713        1.2100077790       -0.0989886235
 C         -4.7591519988        1.5193340656       -0.2866895628
 C         -5.2249906637        2.8146444729       -0.3206692858
 C         -4.3388601624        3.8747763037       -0.1659548853
 C         -2.9960645066        3.6218756680       -0.0090908793
 C         -2.5273472675        2.3054385610        0.0092559044
 O         -1.1762058604        2.1978116457        0.1291183759
 C          4.9010488534       -0.9019561635       -0.9846403060
 C          5.8894937464       -1.8677141238       -1.0293541363
 H          6.6388135806       -3.6857038604       -0.1832947747
 H          4.8346084854       -3.8507663112        1.4916035163
 H          3.0849149375       -2.1163350431        1.5981391452
 H          5.2404522663        1.5560091702        0.1436957500
 H          5.1268693650        4.0151579165        0.2759072217
 H          2.9742574075        5.1811590272        0.3115911374
 H          0.8473211843        3.9091498568        0.2404890547
 H          1.3676720498       -2.3971667700       -0.1623686946
 H         -2.2698234512       -4.8286968227       -0.1686576763
 H         -4.6907392078       -5.3071162201        0.0724161950
 H         -6.2764956174       -3.4310450088        0.3648985043
 H         -5.4634720545       -1.1316268150        0.3625693934
 H         -5.4596784992        0.7119527671       -0.4286627129
 H         -6.2772019765        3.0095404496       -0.4679016501
 H         -4.6990904065        4.8926392518       -0.1819529159
 H         -2.2809260195        4.4240925129        0.0910912405
 H          4.9020239551       -0.0824539819       -1.6876306487
 H          6.6758372461       -1.7936627194       -1.7659098908
