  41
        -63.18100483
 C         -5.8268539748        2.1603849349        0.2949112071
 C         -4.5995213510        2.8066466658        0.4122576634
 C         -3.4289326394        2.0974362161        0.3067677502
 C         -3.4414848399        0.6988950575        0.0896940092
 C         -2.1949771065        0.0275831132        0.0075782522
 N         -1.0336182480        0.7513304478       -0.0566221069
 C         -0.0335995645       -0.0994606837       -0.1388800858
 C          1.3419766221        0.3109042392       -0.1780260719
 C          1.6335048372        1.5716065706       -0.7519075403
 C          2.9159525926        2.0242694944       -0.8278290467
 C          3.9926845300        1.2609504851       -0.3126381148
 C          5.3240260359        1.6995341326       -0.3802376864
 C          6.3417885809        0.9433148152        0.1520204872
 C          6.0621007495       -0.2774379796        0.7752301200
 C          4.7726936831       -0.7342890352        0.8570389317
 C          3.7058591331        0.0151302898        0.3117768802
 C          2.3793259182       -0.4377419260        0.3694340168
 N         -0.4904077208       -1.4112646704       -0.1617825674
 C          0.1860662256       -2.5818320856       -0.3750432913
 C         -0.5165602980       -3.7808709869       -0.3261862921
 C         -1.8709902191       -3.7883982654       -0.0865903784
 C         -2.5711263368       -2.5570601369        0.0473151421
 C         -1.8657359717       -1.3753829206       -0.0328247558
 C         -4.6948768175        0.0660210673       -0.0468887949
 C         -5.8593684411        0.7904469147        0.0559782663
 H         -6.7471428725        2.7183472033        0.3782915903
 H         -4.5702047764        3.8722647670        0.5876019249
 H         -2.4692731228        2.5798454548        0.3988022611
 H          0.8087006759        2.1484629016       -1.1391919927
 H          3.1331163950        2.9788595065       -1.2848532755
 H          5.5375934159        2.6452381362       -0.8574087892
 H          7.3628465586        1.2904809785        0.0943469520
 H          6.8708568390       -0.8581454056        1.1942170299
 H          4.5533716629       -1.6772351966        1.3374162891
 H          2.1743752750       -1.3516627733        0.9078818766
 H          1.2284075970       -2.5174539132       -0.6283237764
 H          0.0251723453       -4.7003777827       -0.4798579840
 H         -2.4183029596       -4.7142004446       -0.0250992555
 H         -3.6311107905       -2.5654992164        0.2191248578
 H         -4.7454092543       -0.9862674846       -0.2692002907
 H         -6.8110402730        0.2907438465       -0.0554237301
  41
        -63.18075177
 C         -5.3731457027        2.4408951445        0.8668331954
 C         -4.0929854600        2.9632599415        0.7062718565
 C         -3.0329978812        2.1329475335        0.4376943692
 C         -3.2183058166        0.7369443977        0.3051297155
 C         -2.0834292453       -0.0625702615        0.0108570682
 N         -0.8273146158        0.4755611899        0.0854409315
 C          0.0352716985       -0.4737060686       -0.2132041775
 C          1.4494653842       -0.2420901828       -0.2872436433
 C          2.3069136917       -0.9529258698       -1.1571453939
 C          3.6436462166       -0.6803986016       -1.1895299070
 C          4.2139473537        0.3136185585       -0.3575071848
 C          5.5880991392        0.5963949215       -0.3604910768
 C          6.1025631199        1.5884783803        0.4419343298
 C          5.2587268372        2.3338550310        1.2719818272
 C          3.9118109594        2.0814364070        1.2990083709
 C          3.3524879294        1.0661112912        0.4900510078
 C          1.9820729857        0.7807320028        0.4976240310
 N         -0.6112750335       -1.6782283816       -0.4632470157
 C         -0.1070646270       -2.9341117261       -0.6639393913
 C         -0.9878385441       -3.9748797266       -0.9405607793
 C         -2.3441918600       -3.7501051952       -0.9846371059
 C         -2.8554534828       -2.4604591322       -0.6743866474
 C         -1.9701933860       -1.4456057638       -0.3753195965
 C         -4.5183098343        0.2243222391        0.4938364311
 C         -5.5697996933        1.0676803671        0.7683756680
 H         -6.2060997108        3.0945075442        1.0769641192
 H         -3.9348347689        4.0284130219        0.7939111003
 H         -2.0352006899        2.5195516435        0.3066884650
 H          1.8942458887       -1.6753049827       -1.8455799006
 H          4.2903057927       -1.2155473245       -1.8702875323
 H          6.2386451946        0.0224716381       -1.0050640838
 H          7.1621855656        1.7973181091        0.4329245592
 H          5.6777811397        3.1105290806        1.8950636776
 H          3.2555628447        2.6536633986        1.9381474329
 H          1.3162049376        1.3398638662        1.1359480658
 H          0.9521015447       -3.0742571465       -0.5508254597
 H         -0.5816445412       -4.9576261317       -1.1187637602
 H         -3.0307575611       -4.5452282508       -1.2233520331
 H         -3.9155183927       -2.2889477161       -0.6911816946
 H         -4.6866856150       -0.8390560130        0.4639993776
 H         -6.5587383268        0.6576887516        0.9162893906
  41
        -63.18065596
 C         -5.7432199660        2.2201352384       -0.4231039569
 C         -5.7481095377        0.8539062448       -0.6863547857
 C         -4.6083395480        0.1017546490       -0.5250927037
 C         -3.4085548965        0.7023538101       -0.0873598008
 C         -2.1860820933        0.0066358560        0.0817567178
 N         -1.0231992514        0.7103608306        0.2629318428
 C         -0.0328838165       -0.1533605610        0.2793831513
 C          1.3470354645        0.2464568761        0.3332311512
 C          1.6692088276        1.4179705312        1.0571277700
 C          2.9505101611        1.8795293327        1.1011984609
 C          3.9877510929        1.2236345753        0.3942301878
 C          5.3094695026        1.6969762728        0.3920288036
 C          6.2841021169        1.0580010014       -0.3369542964
 C          5.9721233567       -0.0816331761       -1.0860209007
 C          4.6934582716       -0.5741599091       -1.0980532934
 C          3.6687891151        0.0612294041       -0.3614066308
 C          2.3481286173       -0.4132447938       -0.3704037267
 N         -0.4973705215       -1.4574772198        0.1773923202
 C          0.1722395465       -2.6444103290        0.3155601419
 C         -0.5506454042       -3.8309891549        0.2690091630
 C         -1.9165011877       -3.8139442774        0.1081158249
 C         -2.6022799782       -2.5691034464        0.0206365293
 C         -1.8730266623       -1.4011266918        0.0599666288
 C         -3.4191402874        2.0969399181        0.1571952253
 C         -4.5655391025        2.8338461998       -0.0049313340
 H         -6.6440372937        2.8005115850       -0.5525930857
 H         -6.6563990231        0.3803651434       -1.0308738249
 H         -4.6260592342       -0.9463192732       -0.7721585918
 H          0.8718844891        1.9226473889        1.5792863691
 H          3.1941782564        2.7643620323        1.6711818458
 H          5.5471314486        2.5806054557        0.9668395774
 H          7.2960957814        1.4352232289       -0.3378628759
 H          6.7474372494       -0.5710452548       -1.6572691019
 H          4.4491110297       -1.4547658876       -1.6750868565
 H          2.1124286394       -1.2625802015       -0.9956182265
 H          1.2286790296       -2.6009835744        0.5080124901
 H         -0.0160946181       -4.7621595422        0.3688900660
 H         -2.4825074657       -4.7296947458        0.0711147137
 H         -3.6745439465       -2.5572984051       -0.0396719046
 H         -2.4966557761        2.5551825032        0.4748757434
 H         -4.5555173727        3.8963315191        0.1905186053
