  54
        -95.24609279
 F         -1.4110753613       -1.3053650800        1.8926392806
 C         -0.7363757056       -0.7016423653        0.8930337933
 C          0.6358523259       -0.8167060781        0.8738979105
 C          1.4061728395       -0.2209495895       -0.1353717313
 N          2.7707190148       -0.3477053996       -0.1459349260
 C          3.6123505008        0.1965217578       -1.1438551549
 C          3.4929355581       -0.1759725603       -2.4764943502
 C          4.3364490505        0.3717393540       -3.4248925362
 C          5.3212636067        1.2710077050       -3.0481943880
 C          5.4838909830        1.6060966696       -1.7165749338
 C          4.6360143205        1.0607513468       -0.7664401260
 S          4.8632958703        1.4203905258        0.9574172994
 C          4.4885366347       -0.2092184743        1.5488819055
 C          5.2044863068       -0.7536579603        2.6039780943
 C          4.9428706940       -2.0476832823        3.0142045075
 C          3.9974410501       -2.8100419532        2.3461898604
 C          3.2823599405       -2.2683973093        1.2930070683
 C          3.4906866661       -0.9469825245        0.9149354755
 C          0.6867191842        0.5499663614       -1.0678179110
 F          1.3225907218        1.2766174918       -2.0183414308
 C         -0.6877366671        0.6430573617       -1.0545698348
 C         -1.4407777593        0.0052150034       -0.0758105335
 N         -2.8556461707        0.0796992985       -0.0505256061
 C         -3.5561399327       -0.9917720940       -0.5990020750
 C         -2.8611074470       -1.9991329226       -1.2708117390
 C         -3.5140780234       -3.0860897157       -1.8244813763
 C         -4.8887506224       -3.1925383823       -1.7379464930
 C         -5.5977049548       -2.1960483634       -1.0909069298
 C         -4.9454891863       -1.1133649265       -0.5243903581
 S         -5.9700674254        0.0716404315        0.3004980739
 C         -4.8192015925        1.3767579008        0.6314264212
 C         -5.3611412275        2.5553248326        1.1170627773
 C         -4.5485246566        3.6188911539        1.4674279840
 C         -3.1801286469        3.4860599897        1.3324734250
 C         -2.6363698734        2.3147506673        0.8355869332
 C         -3.4395349625        1.2360750713        0.4612751809
 H          1.1087725028       -1.3576769961        1.6750285447
 H          2.7192290808       -0.8728229144       -2.7627762208
 H          4.2242721590        0.0931632816       -4.4610257822
 H          5.9745822306        1.7018556534       -3.7907474963
 H          6.2584225288        2.2886418668       -1.4034737486
 H          5.9598620551       -0.1567466710        3.0907676736
 H          5.4934497080       -2.4690441588        3.8406381382
 H          3.8172950215       -3.8320705889        2.6414847475
 H          2.5592817970       -2.8654942838        0.7577742078
 H         -1.1752254053        1.2404964202       -1.8084749716
 H         -1.7885379914       -1.9316449297       -1.3596955211
 H         -2.9370009672       -3.8472074081       -2.3271305457
 H         -5.4073590739       -4.0353402844       -2.1660211870
 H         -6.6728603456       -2.2476305753       -1.0085421397
 H         -6.4328807560        2.6194839244        1.2274093700
 H         -4.9824534267        4.5295441458        1.8483035938
 H         -2.5212671003        4.2937699043        1.6123136539
 H         -1.5650912224        2.2343128073        0.7465703402
