54
 energy: -95.196639263048 gnorm: 0.000058151185 xtb: 6.7.1 (edcfbbe)
F           -1.58839646541569       -0.00584824908736        2.22018719329852
C           -0.79133268870786       -0.00272269998387        1.11845053039975
C            0.56877713139926       -0.00361352237991        1.28903329703029
C            1.40530971696111       -0.00060140542004        0.13675178371426
N            2.82180873435527       -0.00076055990064        0.25036450793446
C            3.46206439112664       -1.22722755339540        0.25048416129180
C            2.72797248116083       -2.39675636406563        0.48493220293336
C            3.32451175665580       -3.63840231424488        0.47039435762337
C            4.68856910251738       -3.76270443322494        0.20511416441552
C            5.43311049756337       -2.62945236802505       -0.03245478506780
C            4.84226992398576       -1.36853245887915       -0.00258290903213
S            5.88064120389472       -0.00274103975378       -0.36827566093191
C            4.84223902465715        1.36555895407024       -0.01236396120777
C            5.43266795762890        2.62635338136436       -0.05117531439771
C            4.68802335143872        3.76097743771488        0.17954456023818
C            3.32431162941859        3.63800273954592        0.44762895104897
C            2.72816343497736        2.39640992142120        0.47093339526610
C            3.46219645387892        1.22553730727581        0.24262136971567
C            0.79406569816340        0.00344825469750       -1.11744928217145
F            1.59101095268137        0.00650580727410       -2.21925843167722
C           -0.56612647634485        0.00433845922902       -1.28806791893941
C           -1.40263252998961        0.00132673566328       -0.13577694370530
N           -2.81917470318370        0.00084382734583       -0.24866613547174
C           -3.45881548110985       -1.22563777702625       -0.23437057729894
C           -2.72497831034484       -2.39695093765606       -0.46137608570116
C           -3.31991403259846       -3.63881351871939       -0.43006022502895
C           -4.68250410939136       -3.76176506842815       -0.15479979401017
C           -5.42703052459370       -2.62689525839868        0.07423564875905
C           -4.83798304579428       -1.36562068091641        0.02707999318336
S           -5.87546900043768        0.00314656525568        0.38197437347237
C           -4.83934028534633        1.36825985176674        0.00921460671052
C           -5.43023314788221        2.62928413677108        0.03989953819694
C           -4.68682834106269        3.76226548139936       -0.20165842194839
C           -3.32342878969218        3.63797125243861       -0.47166527692311
C           -2.72670697568649        2.39650511915265       -0.48689965973991
C           -3.45970454509723        1.22703310757687       -0.24863251403012
H            1.00216537005985       -0.00648831060701        2.27442600784925
H            1.67156692244274       -2.31588317480470        0.68632170699693
H            2.72798312061219       -4.51607776178624        0.66475213122006
H            5.15575898979217       -4.73434903069066        0.18509295674144
H            6.48929122220936       -2.69415682951436       -0.24630414126538
H            6.48865541198184        2.68995997070179       -0.26632643078986
H            5.15484028903854        4.73262300291731        0.15236573783817
H            2.72788174610506        4.51676583405231        0.63732250371986
H            1.67210830773116        2.31635753117936        0.67464735575642
H           -0.99945306293145        0.00711915865004       -2.27349335605083
H           -1.66997738972673       -2.31676848098765       -0.67047841469787
H           -2.72378056307539       -4.51796503036706       -0.61881777573183
H           -5.14818547666328       -4.73373926570966       -0.12104249108897
H           -6.48199840940252       -2.69048793081264        0.29434275214891
H           -6.48562667026749        2.69406937023446        0.25758712800490
H           -5.15403767699152        4.73387931904527       -0.18099043706908
H           -2.72786366849083        4.51563823576751       -0.66893292373369
H           -1.67097247342648        2.31557566342349       -0.69177982675633
