  54
        -95.16124810
 F         -1.5637277942        0.0521749301        2.2592912810
 C         -0.7808705596        0.0272084071        1.1540872506
 C          0.5833669595        0.0292625306        1.3078010916
 C          1.4033099705        0.0031333163        0.1468850383
 N          2.8188596554        0.0027099567        0.2490988570
 C          3.4527067467       -1.2225576245        0.2401907198
 C          2.7086311210       -2.3923445993        0.4422122620
 C          3.2977112009       -3.6359235621        0.4112015680
 C          4.6658726573       -3.7632774285        0.1583007789
 C          5.4203286406       -2.6312235769       -0.0447041917
 C          4.8383688180       -1.3666029560        0.0052402503
 S          5.8893150730       -0.0011368966       -0.3077185898
 C          4.8421668362        1.3661723965        0.0101661046
 C          5.4290685706        2.6290579126       -0.0344546978
 C          4.6776326229        3.7634449631        0.1660294915
 C          3.3073583693        3.6409124077        0.4079703566
 C          2.7136603803        2.3990181223        0.4346994745
 C          3.4552948651        1.2269242080        0.2395661430
 C          0.7847096183       -0.0239219921       -1.1011639913
 F          1.5683507411       -0.0491696308       -2.2057755742
 C         -0.5789361563       -0.0258786133       -1.2544868602
 C         -1.3989728585        0.0001545418       -0.0936785594
 N         -2.8145552472       -0.0015996251       -0.2019842607
 C         -3.4504832333       -1.2277722827       -0.2058500504
 C         -2.6983941026       -2.3996517338       -0.3550835708
 C         -3.2905570843       -3.6435438608       -0.3447947825
 C         -4.6682091299       -3.7670646269       -0.1718498677
 C         -5.4306483999       -2.6306276525       -0.0200540283
 C         -4.8431246430       -1.3690913856       -0.0428761244
 S         -5.9141251960       -0.0003740370        0.1993563302
 C         -4.8440417677        1.3666492636       -0.0562589450
 C         -5.4316511995        2.6280827362       -0.0457348286
 C         -4.6698237679        3.7629296149       -0.2124034136
 C         -3.2927962706        3.6375277725       -0.3899825114
 C         -2.7005046669        2.3938729373       -0.3879729441
 C         -3.4516174631        1.2236467824       -0.2206355259
 H          1.0307250328        0.0498794638        2.2860187999
 H          1.6506275787       -2.3071567388        0.6310233381
 H          2.6951438665       -4.5144323713        0.5803555001
 H          5.1257537245       -4.7375401026        0.1225267397
 H          6.4788837184       -2.6986172109       -0.2452079136
 H          6.4887317981        2.6928065581       -0.2299399143
 H          5.1412578253        4.7360617425        0.1345100448
 H          2.7060456379        4.5214065793        0.5713492947
 H          1.6537720048        2.3183537219        0.6142305427
 H         -1.0268235790       -0.0469055703       -2.2324630006
 H         -1.6313034773       -2.3190236866       -0.4834173582
 H         -2.6788273212       -4.5233561254       -0.4681464898
 H         -5.1328468940       -4.7396390898       -0.1553592110
 H         -6.4990262241       -2.6944057785        0.1197521464
 H         -6.4996355945        2.6934641138        0.0969926464
 H         -5.1345962583        4.7355605261       -0.2051504193
 H         -2.6820096198        4.5159204320       -0.5280588036
 H         -1.6340762939        2.3112972827       -0.5216461122
