83
 energy: -131.090550236090 gnorm: 0.000137635018 xtb: 6.7.1 (edcfbbe)
C           12.09867768585895       -0.31853600500970        0.03531335079803
C           11.72884903286616        0.81799588541466        0.73901532612220
C           10.41119812903811        1.22989138533098        0.74961216735062
C            9.43840863988722        0.50433955591452        0.05701518224847
C            8.07275426229437        0.98770277467011        0.09058168847694
N            7.75241727842951        2.25878672655179        0.18923990861606
N            6.43509730740903        2.37360941394566        0.16031019736720
C            5.90234607492157        1.16449737340313        0.05672880866664
C            4.49577564724047        0.92450584568573        0.06605129947504
C            3.90307640481979       -0.30581372042341        0.41835782411494
C            2.54682370466570       -0.46291928702867        0.40633406977896
C            1.66335304547989        0.59615239334764        0.06006610682176
C            0.25247139747208        0.42116938369284        0.04318633833914
C           -0.35409021172493       -0.87106673882380        0.00231025817052
C           -1.69981855642039       -1.03378913368570       -0.01798719793618
C           -2.59802190074761        0.07957565404061        0.01201983716611
C           -3.97269322653826       -0.19997653931065        0.00304279128862
N           -4.43524189460879       -1.46225924660738        0.05235052900252
C           -5.76301501263272       -1.38740368013091        0.06005973905935
C           -6.69713466098172       -2.46217601800279        0.12555001869670
C           -6.25982408421597       -3.78838334406454        0.19361598046159
C           -7.16839424427078       -4.81884771961426        0.26693329658889
C           -8.52870760375728       -4.52545897121245        0.27471363825609
C           -8.97056451992015       -3.22102855387554        0.20725917100718
C           -8.07567697483780       -2.14453470093994        0.12788315381590
C           -8.51079538830871       -0.75959810897819        0.04477253883518
C           -9.86682994494466       -0.41745639564524        0.02572748220672
C          -10.29434083711688        0.88961316795418       -0.06359373285374
C           -9.36489994149876        1.92515388613799       -0.14630682012535
C           -8.02479871252583        1.63717266990359       -0.12849455125551
C           -7.56189677574846        0.30947402389843       -0.02743235495918
C           -6.19356337780240       -0.03633078996960        0.00161570227430
N           -5.04407318188023        0.70788764732607       -0.03340116662757
C           -4.95798697144948        2.11744240140841       -0.11596745397067
C           -5.05158574887693        2.88628020424095        1.04049383278729
C           -4.96953334322252        4.26469361296022        0.95256047005958
C           -4.79577059277490        4.87530319117791       -0.27958004005472
C           -4.70486188942206        4.10755613668700       -1.42968921991693
C           -4.78630686197344        2.72815024643768       -1.35413447271055
C           -1.99971151886886        1.37132774914893        0.06677801078986
C           -0.64959338122594        1.52638360156848        0.07378790106138
C            2.27736477711293        1.84235614353932       -0.25005717849205
C            3.63145284849040        1.99881981215660       -0.24529918665818
N            6.92420518782602        0.23219423824741        0.00636212350673
C            6.83392942887116       -1.16502863286865       -0.13507740101378
C            7.37978253243758       -1.99521462028471        0.83885389258384
C            7.30328040990054       -3.36789649896027        0.68684275789552
C            6.68454568042836       -3.91367226857371       -0.42641029794981
C            6.14112151054994       -3.08411304245145       -1.39482148513179
C            6.21531723848874       -1.71033581497421       -1.25657273147410
C            9.82216840113079       -0.62353415692580       -0.66919676525864
C           11.14370393603204       -1.02962238885183       -0.67316943283265
H           13.12859382117124       -0.64303384417757        0.03167720868852
H           12.47143612556613        1.38369230481974        1.28220060271867
H           10.10807140880817        2.11361173098170        1.29008346482185
H            4.52457554407471       -1.13023346667656        0.73429311579370
H            2.13937980955155       -1.41177954054074        0.71806013565285
H            0.27383932601544       -1.74639859039263       -0.05330913856250
H           -2.13919401731323       -2.01748306751059       -0.06753031887988
H           -5.19600512865918       -3.96983203517036        0.18832231382544
H           -6.83284400743131       -5.84371167786771        0.31904481980222
H           -9.24945982472013       -5.32811213126240        0.33429217087357
H          -10.03425976509823       -3.04623278064843        0.21753537784912
H          -10.61531045658137       -1.19101802875649        0.08033523090235
H          -11.35123600387506        1.11044922195152       -0.07406135827252
H           -9.69752216682486        2.94939519280647       -0.22433683335972
H           -7.30900015121013        2.43929718917858       -0.19649343498172
H           -5.18624771245847        2.39756508475572        1.99439519327143
H           -5.03980821907995        4.86141669656355        1.84936907960320
H           -4.73102702268919        5.95083378627264       -0.34304696021560
H           -4.57050149061442        4.58201396179705       -2.38994620529363
H           -4.71459635000668        2.11785716478864       -2.24237571180038
H           -2.62238552016448        2.24821479661572        0.12368686781757
H           -0.25156425793857        2.52624802041373        0.14887680103309
H            1.66251593544371        2.68145513370988       -0.53445768755152
H            4.08103301665305        2.94796040395785       -0.49467122009858
H            7.85865198009723       -1.55906713710837        1.70364199896284
H            7.72636816313769       -4.01099119943985        1.44360383728222
H            6.62601602764037       -4.98538353767276       -0.53993276022585
H            5.66046918091846       -3.50578565334630       -2.26463625122604
H            5.79523614124042       -1.05360658339719       -2.00478548432179
H            9.09480708545189       -1.17289960577195       -1.24788727171699
H           11.42846919209878       -1.90506412372409       -1.23833242896837
