  83
       -131.11908277
 C         11.9759231335       -0.5126900315       -0.2455087355
 C         11.6988313881        0.3971963041        0.7624300605
 C         10.4103479383        0.8604224112        0.9440474033
 C          9.3808342343        0.4109409605        0.1185164974
 C          8.0417209165        0.9313669575        0.3350323950
 N          7.7733499952        2.1523903379        0.7247027828
 N          6.4493852171        2.2981814124        0.7817856701
 C          5.8903032458        1.1663652612        0.4325569220
 C          4.4589719079        0.9288795283        0.4027797946
 C          3.9012886213       -0.3036590650        0.7375646312
 C          2.5337654782       -0.4812613084        0.6937649002
 C          1.6854854790        0.5628125653        0.3289033272
 C          0.2322251631        0.3625834921        0.2798686007
 C         -0.3096410796       -0.8192114768       -0.2258021904
 C         -1.6737444461       -1.0050775688       -0.2725985906
 C         -2.5447398147       -0.0146708241        0.1863178992
 C         -3.9699135007       -0.2887589169        0.1324777405
 N         -4.4610253553       -1.4981711018        0.2545562837
 C         -5.8093762955       -1.3662381319        0.1779156615
 C         -6.7936982980       -2.3872274240        0.2926922312
 C         -6.4320191270       -3.7203718254        0.5127397002
 C         -7.3967565705       -4.6868967418        0.6483422040
 C         -8.7408039638       -4.3273567569        0.5693266238
 C         -9.1072593329       -3.0202224420        0.3489678553
 C         -8.1507610904       -2.0046628486        0.1960211937
 C         -8.5044104287       -0.6211342544       -0.0711519597
 C         -9.8388750440       -0.2234401169       -0.2349406600
 C        -10.1832499972        1.0741752517       -0.5305861028
 C         -9.1940003605        2.0383566431       -0.6944110052
 C         -7.8749771007        1.6928344762       -0.5332875280
 C         -7.5040330249        0.3816386156       -0.2023120282
 C         -6.1538900780       -0.0287012190       -0.0146748213
 N         -4.9598399461        0.6555927881       -0.0320861902
 C         -4.7433991380        2.0371787751       -0.2072236984
 C         -5.1563701261        2.9385093336        0.7698284393
 C         -4.9127087334        4.2889973452        0.6010644890
 C         -4.2557753469        4.7425376058       -0.5318909846
 C         -3.8425466640        3.8434061245       -1.5007979409
 C         -4.0836260392        2.4903136539       -1.3432701654
 C         -2.0060620832        1.1580992210        0.7139388525
 C         -0.6389516101        1.3426328662        0.7510375413
 C          2.2486226825        1.8018359972        0.0237460718
 C          3.6144425261        1.9842982386        0.0595894424
 N          6.8671543971        0.2467819811        0.1325777902
 C          6.7028252138       -1.0839089994       -0.2880798668
 C          7.3146875205       -2.1128946692        0.4190895456
 C          7.1514767685       -3.4197988789       -0.0019905004
 C          6.3794299971       -3.7023885260       -1.1170098649
 C          5.7690401002       -2.6744253808       -1.8171247970
 C          5.9292583196       -1.3630380183       -1.4093932837
 C          9.6682021423       -0.4868069570       -0.9074335316
 C         10.9607071054       -0.9455035023       -1.0820586322
 H         12.9826820354       -0.8770017250       -0.3848773623
 H         12.4903543642        0.7461245055        1.4086526517
 H         10.1770003597        1.5728562263        1.7196450187
 H          4.5327455140       -1.1203834552        1.0538704921
 H          2.1134618454       -1.4361286851        0.9726127226
 H          0.3487896785       -1.5879384599       -0.6031417809
 H         -2.0951554202       -1.9184172791       -0.6622930803
 H         -5.3804858012       -3.9531453633        0.5762328930
 H         -7.1225864338       -5.7174944646        0.8184556811
 H         -9.5043800561       -5.0834695510        0.6819216853
 H        -10.1594177408       -2.7899710255        0.2972992387
 H        -10.6300845733       -0.9486857586       -0.1359963607
 H        -11.2227718030        1.3423631987       -0.6484101213
 H         -9.4604447177        3.0530388628       -0.9505348810
 H         -7.1115987578        2.4403143426       -0.6785047139
 H         -5.6666773742        2.5722650395        1.6488787170
 H         -5.2339818497        4.9881145873        1.3583743314
 H         -4.0659653317        5.7974721142       -0.6583207982
 H         -3.3315466948        4.1950574128       -2.3841813881
 H         -3.7629782278        1.7792833849       -2.0902413349
 H         -2.6497739238        1.9208774359        1.1234205058
 H         -0.2380740302        2.2484080539        1.1816419072
 H          1.6072863056        2.6210839445       -0.2657469027
 H          4.0539309148        2.9403782355       -0.1776228041
 H          7.9125842449       -1.8809028669        1.2880799054
 H          7.6269167896       -4.2188587478        0.5461098287
 H          6.2532835877       -4.7241391227       -1.4406723340
 H          5.1686345556       -2.8916630131       -2.6874070584
 H          5.4605942003       -0.5532292858       -1.9489016678
 H          8.8898669746       -0.8126993958       -1.5813572966
 H         11.1754908597       -1.6406547567       -1.8801226976
