83
 energy: -131.090537177659 gnorm: 0.000052402675 xtb: 6.7.1 (edcfbbe)
C           12.09742505817470       -0.39884868876242       -0.01602849484310
C           11.73836335042270        0.75160594196442        0.67039355395176
C           10.42378342770215        1.17327811375634        0.67864743637263
C            9.44336639569171        0.44346166306633        0.00153507755782
C            8.08145498761808        0.93765298037421        0.03043565370953
N            7.77046803236164        2.21272705581412        0.10440197345942
N            6.45391129574133        2.33630993564820        0.07659874642189
C            5.91230183416942        1.12917566121092       -0.00141227646879
C            4.50412894588685        0.89927403290731        0.01508439496694
C            3.90337960140984       -0.31935047059573        0.39340211921899
C            2.54611648845457       -0.46763402872718        0.38519554502705
C            1.66940941156535        0.58962463281451        0.01673752043234
C            0.25742832119869        0.42364564318916        0.00342947362668
C           -0.35808446220062       -0.86505947967879       -0.00529671199381
C           -1.70490084202482       -1.01907477222835       -0.02134286636728
C           -2.59548805769073        0.10078332059815       -0.01936853198775
C           -3.97209477457110       -0.16910218987664       -0.01848343841796
N           -4.44389807110742       -1.42617708931761        0.06387549841424
C           -5.77105531086321       -1.34102139150320        0.07482050838466
C           -6.71306531146623       -2.40685125653729        0.16834101059379
C           -6.28561702291174       -3.73470582999013        0.26250644866213
C           -7.20169111081178       -4.75644070024117        0.36063473127156
C           -8.55969481891831       -4.45256711094690        0.36737133049202
C           -8.99189284389174       -3.14642223905499        0.27480657657415
C           -8.08914312494062       -2.07870440151304        0.16965433362120
C           -8.51412614126708       -0.69247344692593        0.05989624410443
C           -9.86755773346303       -0.33998048933515        0.04480368755916
C          -10.28562009648908        0.96839259630917       -0.06750922850458
C           -9.34883075677390        1.99452516786836       -0.17952776089513
C           -8.01095253850196        1.69614898561339       -0.16770207774442
C           -7.55750021404598        0.36721546424302       -0.04255947555467
C           -6.19167476548352        0.01153168297730       -0.01489128863893
N           -5.03674625322712        0.74581102918864       -0.07329645646375
C           -4.93950329500354        2.15091205171103       -0.20521944655842
C           -5.01738067105739        2.96093840351019        0.92406874460788
C           -4.92403223656888        4.33459115354821        0.78674539000072
C           -4.75433706946649        4.89962343886347       -0.46755689480010
C           -4.67872074999615        4.09097554180866       -1.59032365485013
C           -4.77169505392325        2.71585929783219       -1.46541542273503
C           -1.98833066268977        1.38938276273158        0.00155848284261
C           -0.63722434107517        1.53534569647340        0.00518968943233
C            2.29171817633629        1.82506377449354       -0.31917404826965
C            3.64678477249828        1.97266900943156       -0.31788810008082
N            6.92741943871872        0.18886099202263       -0.03543417605787
C            6.82772486933196       -1.21057471125819       -0.14514114344309
C            7.37138471831576       -2.02165624220387        0.84594603692087
C            7.28510691771578       -3.39693702876760        0.72623027721498
C            6.65897900972876       -3.96410919643797       -0.37208129507727
C            6.11800621300862       -3.15353852723025       -1.35780092055018
C            6.20190999441695       -1.77744007367337       -1.25181743218556
C            9.81614368047343       -0.69936490349843       -0.70676632290657
C           11.13474748875990       -1.11488655136358       -0.70891193266968
H           13.12499681338057       -0.73072386695972       -0.01807324598672
H           12.48695096023294        1.32056282888626        1.20180186497129
H           10.12894605501001        2.06807364851606        1.20529833872921
H            4.51949619068190       -1.14117013352329        0.72621149363622
H            2.13275721448517       -1.40723649457963        0.71653049220860
H            0.26363479973765       -1.74592134597211       -0.03863908803820
H           -2.15101071467601       -2.00069492878359       -0.04555702163684
H           -5.22326026795970       -3.92446711086840        0.25691899630303
H           -6.87369836127207       -5.78252875832026        0.43297025979607
H           -9.28631680682699       -5.24823214723844        0.44625682670870
H          -10.05419386233674       -2.96334763843004        0.28494979262614
H          -10.62156113999977       -1.10621569786183        0.12205436148161
H          -11.34080141011916        1.19743359530236       -0.07327134938357
H           -9.67407204800737        3.01959689867945       -0.27567876570225
H           -7.28945702356109        2.49076132298111       -0.25924638900757
H           -5.14890984803442        2.50737401115604        1.89560473047510
H           -4.98231982776598        4.96328539737872        1.66231411518963
H           -4.68058256098473        5.97156458590257       -0.56978457391401
H           -4.54717977939440        4.52999657741562       -2.56761844034069
H           -4.71187826413871        2.07403107591763       -2.33213725096211
H           -2.60495400540732        2.27173312959342        0.03507979833381
H           -0.23272218082812        2.53419562796513        0.05436889728741
H            1.68259880482428        2.66233635296628       -0.62067103012725
H            4.10254013484491        2.91340563905332       -0.58711106343395
H            7.85594017613160       -1.56858665632861        1.69877654974116
H            7.70627379149962       -4.02512267225496        1.49645385306185
H            6.59244209695164       -5.03773826114534       -0.46024423499024
H            5.63153317719002       -3.59208307111985       -2.21594621922289
H            5.78382218460170       -1.13537106627612       -2.01370111027335
H            9.08260862701007       -1.25316806958518       -1.27334976221576
H           11.41122192788670       -2.00156789761573       -1.26050127505095
