  83
       -131.03517111
 C         12.0788024601       -0.3673580351        0.0134353636
 C         11.7253385729        0.7361890798        0.7748880952
 C         10.4128344245        1.1608579035        0.8132038617
 C          9.4296696725        0.4800429249        0.0915615202
 C          8.0700001799        0.9738351263        0.1598080841
 N          7.7582028541        2.2409863770        0.3275875218
 N          6.4458591904        2.3681586329        0.3125029335
 C          5.9006003378        1.1705185271        0.1481882734
 C          4.4939091410        0.9338124634        0.1609549590
 C          3.9068698183       -0.3073632218        0.4821817484
 C          2.5509980949       -0.4642321792        0.4747749988
 C          1.6666235236        0.6032271431        0.1620144171
 C          0.2562683132        0.4258864627        0.1426789147
 C         -0.3457473319       -0.8651986571        0.0559794371
 C         -1.6909196186       -1.0297138313        0.0255141799
 C         -2.5889162170        0.0813264223        0.0841453888
 C         -3.9623419191       -0.2010976587        0.0497199814
 N         -4.4260817551       -1.4609552778        0.0981319877
 C         -5.7524659565       -1.3854893302        0.0909324581
 C         -6.6880816550       -2.4585841749        0.1534657971
 C         -6.2508308318       -3.7825256314        0.2453361376
 C         -7.1602490251       -4.8120088777        0.3171788746
 C         -8.5201558512       -4.5192224418        0.2989405368
 C         -8.9614529803       -3.2163059437        0.2073079916
 C         -8.0658147950       -2.1408300658        0.1293971193
 C         -8.4989950768       -0.7577648143        0.0182241467
 C         -9.8538206233       -0.4167449113       -0.0342102686
 C        -10.2793269466        0.8875863810       -0.1591359818
 C         -9.3483554548        1.9209077461       -0.2485165371
 C         -8.0091913534        1.6349219290       -0.1960989842
 C         -7.5488274643        0.3104571396       -0.0518725976
 C         -6.1825226513       -0.0345816777        0.0157616638
 N         -5.0321665766        0.7078398023       -0.0071203960
 C         -4.9355281966        2.1106452645       -0.1214337837
 C         -5.1308351884        2.9148746613        0.9978291041
 C         -5.0305894803        4.2888484013        0.8774455066
 C         -4.7382914684        4.8613957643       -0.3503459344
 C         -4.5461311188        4.0590918213       -1.4632952643
 C         -4.6441328513        2.6836655428       -1.3549356687
 C         -1.9961324442        1.3710337409        0.1982860023
 C         -0.6462913621        1.5272679259        0.2185376744
 C          2.2758045212        1.8591553021       -0.1125555149
 C          3.6295911873        2.0173537397       -0.1104479865
 N          6.9141074757        0.2356257038        0.0431707378
 C          6.8032224550       -1.1444937131       -0.1857506859
 C          7.3838393160       -2.0441512544        0.7025778195
 C          7.2814682626       -3.4018361923        0.4622555711
 C          6.6031894291       -3.8646282659       -0.6537395040
 C          6.0251675664       -2.9658554860       -1.5364411335
 C          6.1243953896       -1.6061863652       -1.3098593436
 C          9.7961727803       -0.6134755094       -0.6934311076
 C         11.1130836011       -1.0314801916       -0.7248798610
 H         13.1047637153       -0.7027287872       -0.0121654336
 H         12.4771399397        1.2653166464        1.3413246911
 H         10.1204550016        2.0195210917        1.3968645500
 H          4.5305312801       -1.1384640854        0.7731544728
 H          2.1441179807       -1.4203571449        0.7640035104
 H          0.2859197006       -1.7355484445       -0.0280571591
 H         -2.1304090523       -2.0105051733       -0.0590580693
 H         -5.1871400098       -3.9619042697        0.2601213563
 H         -6.8264789313       -5.8360839761        0.3886801166
 H         -9.2418633993       -5.3210211913        0.3570101519
 H        -10.0255526303       -3.0423729626        0.1972872031
 H        -10.6036038447       -1.1892937890        0.0206360248
 H        -11.3355041149        1.1082110226       -0.1943803359
 H         -9.6802106049        2.9422290558       -0.3596555621
 H         -7.2933137629        2.4366346142       -0.2744941430
 H         -5.3580326722        2.4553902144        1.9484692103
 H         -5.1786874671        4.9132640431        1.7453952444
 H         -4.6597793863        5.9341090161       -0.4391382070
 H         -4.3200061095        4.5045359006       -2.4201325541
 H         -4.4927325550        2.0464183861       -2.2134456929
 H         -2.6203963143        2.2429452894        0.2999496648
 H         -0.2486407083        2.5222351672        0.3436178132
 H          1.6566715735        2.7042260135       -0.3680920650
 H          4.0785819575        2.9728113427       -0.3317717748
 H          7.9100458819       -1.6722945554        1.5691288977
 H          7.7307711927       -4.0999775317        1.1520322120
 H          6.5246744773       -4.9254816813       -0.8358850890
 H          5.4979536497       -3.3234862147       -2.4077793096
 H          5.6777790879       -0.8959481132       -1.9894858525
 H          9.0610553512       -1.1239280099       -1.2965040695
 H         11.3869888954       -1.8794560543       -1.3357141363
