110
 energy: -148.410681199166 gnorm: 0.000047781970 xtb: 6.7.1 (edcfbbe)
C            3.65452872442745        5.48119039404951        0.83983745284098
C            4.84780261985226        4.88086302832501        0.08123078879411
C            6.11879897022529        5.18545085397434        0.88033231409456
C            4.97924159988269        5.55117803137758       -1.29461077006478
C            4.61951182142993        3.38701493728549       -0.10848831462993
C            3.49039244686687        2.95998868977178       -0.82175890957016
C            3.19815839951175        1.62901737204654       -1.03907302980714
C            4.06117384931918        0.67760506184909       -0.51604994425627
C            5.21644928257336        1.08022221482288        0.18785313237444
C            5.48628134569722        2.42833700447257        0.38953253043380
C            5.90747981687201       -0.12407216013268        0.55720000662335
C            7.08061745746413       -0.36761052720997        1.26091426621469
C            7.49367090208689       -1.67089324280841        1.48341193334666
C            8.77001041352740       -2.01113502393265        2.24162710179409
C            9.68981550349894       -2.84578382637573        1.33772699197267
C            8.40945090770931       -2.81538131230035        3.49970852844057
C            9.54401133161113       -0.76400963581975        2.68037469049600
C            6.69412622387853       -2.71638719506994        0.99969040741511
C            5.52577955480563       -2.50470957687621        0.29678402408135
C            5.13719014468764       -1.19523615719167        0.05591331382472
N            4.02430887178110       -0.70031280342879       -0.59308840597891
C            3.04202772800407       -1.46330579955409       -1.24670190844262
C            3.43682100615568       -2.43934999532694       -2.17184991574611
C            2.51050917529060       -3.21509211058454       -2.83799375971558
C            1.16615712781813       -2.98684275437753       -2.58167438829395
N            0.05597806801128       -3.59469958851042       -3.10920307312753
C           -1.06951989073404       -3.02669820509799       -2.57006204305182
C           -2.40742554143741       -3.30469408945357       -2.81087129712084
C           -3.35406722600529       -2.55790507639033       -2.14018562795326
C           -2.98432424784222       -1.55916170386822       -1.22935210609991
N           -3.98574068580961       -0.81531287435823       -0.58184795555012
C           -4.07524521203255        0.56196928680375       -0.55298682166006
C           -3.25838623797194        1.52495719747276       -1.12195365178375
C           -3.59893511981150        2.85515792674245       -0.95709014716421
C           -4.73473176746312        3.26163887446633       -0.24984257178318
C           -5.10748866421363        4.72843865891487       -0.07316686537512
C           -6.48033863323666        4.97670513816981       -0.71630580817882
C           -4.10048100376728        5.68327659474913       -0.72201751068823
C           -5.17120555228301        5.05452766289058        1.42666675101523
C           -5.55553158102800        2.28557610362390        0.29994621903484
C           -5.23773899826580        0.94407887306198        0.15326566867029
C           -5.87428451980275       -0.27306788434721        0.57634690496736
C           -7.02469771710696       -0.53807142121969        1.30868085731285
C           -7.38265055930633       -1.84834500628315        1.58114515790100
C           -8.63139152758450       -2.21198841688704        2.37364862676199
C           -8.21989285866423       -2.97424921122176        3.64216968027466
C           -9.54037799967475       -3.09681358524647        1.50736031600073
C           -9.43740717002925       -0.98105002181468        2.80021675418485
C           -6.55332724885181       -2.87789902608451        1.11413666230773
C           -5.40573809837890       -2.64488924553295        0.38407871645761
C           -5.07016605534451       -1.32991986171353        0.09848495501474
C           -1.64781218754561       -1.28857079682227       -0.97441694417437
C           -0.68292667794349       -2.01842038742021       -1.65434343567339
C            0.75368999116942       -1.99460180115269       -1.65990706977713
C            1.69898600208333       -1.23895894378997       -0.98058793833477
H            3.54153282372587        4.99540511546871        1.80738809410877
H            2.72797742388774        5.35546534574449        0.28627773372875
H            3.81125245767830        6.54556043864031        1.00395499407482
H            6.06806414844844        4.75066557382700        1.87616107631996
H            6.22923185938891        6.26282328397532        0.98912093388946
H            7.00201001187492        4.80754286299600        0.37002399658805
H            5.80918367469203        5.11472449972742       -1.84728274292272
H            4.07534396604404        5.42701058614012       -1.88468165014118
H            5.16495870683695        6.61695794207838       -1.17642887935856
H            2.81233317622674        3.69554650732932       -1.22784247898563
H            2.32545441323909        1.34422652819959       -1.60805879974133
H            6.37623358784784        2.69950134678224        0.93286928116727
H            7.64629566172668        0.47372460121573        1.62553193315482
H            9.22158141911066       -3.78333620815454        1.05081464846240
H           10.61825156297656       -3.07497614551587        1.85721005400341
H            9.92859116352239       -2.29259397851275        0.43122121735114
H            7.91559646165979       -3.74933346984132        3.24531835302474
H            7.73987062050423       -2.23874105909827        4.13527643860143
H            9.30862506322370       -3.04869140958857        4.06665926680638
H            9.83495975119476       -0.16262837893448        1.82184193288258
H           10.45005850992744       -1.06478912311305        3.20320444559334
H            8.95199105059378       -0.15446093970320        3.35945164756113
H            6.99226201935936       -3.73782888209433        1.18255715934354
H            4.93050900224582       -3.33851790318215       -0.04517516127764
H            4.49012782748467       -2.57197137521624       -2.36768936058142
H            2.82534012824966       -3.96694224055037       -3.54582221126047
H            0.06554256040224       -4.33129278137027       -3.79453251764768
H           -2.70211473215009       -4.07176868881945       -3.51100115776963
H           -4.40422076756777       -2.72961735738363       -2.32266036848148
H           -2.38078619848151        1.25188771155017       -1.68933297872809
H           -2.95146863327925        3.59194031405547       -1.40350119085465
H           -6.44875062953982        4.73080252613462       -1.77621707691747
H           -6.76072387923224        6.02311101803569       -0.61226473962594
H           -7.25148084522118        4.36961196921480       -0.24991609819019
H           -4.04262479515026        5.52200544485717       -1.79624801121856
H           -4.41740086022767        6.71105277961054       -0.55434261693329
H           -3.11027460856770        5.56239864759176       -0.28819416983420
H           -4.20687711047883        4.86392106819996        1.89418374715898
H           -5.42495424162628        6.10272805549721        1.57253359231188
H           -5.91914075359471        4.45017021768831        1.93252672212041
H           -6.44988752824339        2.55282349095178        0.84194243295784
H           -7.61684528188720        0.29241603660125        1.65586236628358
H           -7.70214389900416       -3.89827270051541        3.39949463155335
H           -9.09948162659808       -3.22174031323004        4.23331025931306
H           -7.55601418972022       -2.36178977520599        4.24966577944119
H           -9.04591125826275       -4.02396830840575        1.23076256558610
H          -10.44985862803703       -3.34558361055510        2.05080022495174
H           -9.81586315876931       -2.57190222256403        0.59445596770191
H          -10.31947479526668       -1.29897194662149        3.35305233621524
H           -9.77007540664787       -0.41236867559060        1.93458350647776
H           -8.85064117179479       -0.33421769204397        3.44873141107009
H           -6.81036860236902       -3.90357735121359        1.33224015667878
H           -4.78576613954186       -3.46584116117498        0.05499731211164
H           -1.37070762826046       -0.52894243502799       -0.25979086657003
H            1.40156047779398       -0.49706875355846       -0.25567234532269
