110
 energy: -148.409713451592 gnorm: 0.000052649527 xtb: 6.7.1 (edcfbbe)
C            9.74866616878620       -0.62383653670937       -1.25751711997320
C            9.05745963914450        0.64077122956983       -1.77691817661716
C            8.90160207802070        0.50615995171035       -3.29910641263673
C            9.95795193122599        1.84205401871699       -1.45144283248674
C            7.68772004081097        0.85971251971039       -1.14810276183990
C            6.94017343755954        1.98311618918342       -1.52827735594244
C            5.69728997372987        2.27151573405468       -1.00260154495562
C            5.17560474285898        1.41021911792360       -0.04873150877639
C            5.89312419547876        0.25494054732666        0.32809934097537
C            7.14271178652961       -0.01027725412004       -0.21802011679778
C            5.06821234307378       -0.44421593019147        1.27456885141608
C            5.22914391185291       -1.62241238342746        1.98711813112581
C            4.23638771511059       -2.05263620114878        2.85763538356888
C            4.42895743731306       -3.36266127268969        3.61143912964641
C            3.24421787973301       -3.70968826184921        4.51845745455636
C            5.68569075730580       -3.25960644952098        4.48861361243735
C            4.59779124175854       -4.50299855345730        2.59566979977355
C            3.09543459865370       -1.25860126359838        3.00944217174585
C            2.90879405891859       -0.07800166508753        2.31350609967869
C            3.89210448365551        0.32435794933520        1.42460525483486
N            3.96936307176447        1.44582851932310        0.62248755772432
C            2.98966452012061        2.44501850230507        0.49889623178040
C            3.36629813567823        3.79078570996748        0.60720853619000
C            2.44671262367678        4.80911095755415        0.46192221299442
C            1.12391492068991        4.46298582566764        0.22656441495528
N            0.02556150917477        5.26300695170217        0.04223405864211
C           -1.08004746325298        4.47508715543646       -0.15081038206169
C           -2.39939751236177        4.83581342564708       -0.38356882642102
C           -3.32808085838725        3.82758457815470       -0.54085974761469
C           -2.96395387840433        2.47736733398117       -0.44630471543532
N           -3.95243711651939        1.48843098783671       -0.58198556007343
C           -5.16054348254026        1.45745391321594        0.08658942735883
C           -5.67621623154225        2.31207373861359        1.04711256489330
C           -6.92529504621962        2.03408072120136        1.57195106092517
C           -7.67933988020424        0.92408130146094        1.17947806107354
C           -9.06033990803664        0.62907466578975        1.75154387112740
C           -9.03081936718775       -0.73336422709414        2.46045115379138
C          -10.08098397816107        0.59447399820180        0.60377537497186
C           -9.52422532829739        1.68030505410669        2.76475432929802
C           -7.13783395734023        0.05767150253885        0.23853097718863
C           -5.88835837893818        0.31180368277423       -0.30507470373701
C           -5.06752879290709       -0.38431048390816       -1.25795398357247
C           -5.23838812445312       -1.55186271702668       -1.98509276587905
C           -4.24825746078316       -1.98092692237180       -2.85948638030482
C           -4.45237669917006       -3.27887254714195       -3.63087348070099
C           -3.27188181029472       -3.62264641274434       -4.54464499359532
C           -5.70939971895364       -3.15410369759185       -4.50480926507596
C           -4.62866274344364       -4.43149201146666       -2.63038669517252
C           -3.09906967243021       -1.19683262818195       -2.99823206089475
C           -2.90240720236071       -0.02682151844565       -2.28715846884509
C           -3.88411129967466        0.37499898446600       -1.39630572948299
C           -1.64453787525194        2.11311292873377       -0.21810234669254
C           -0.69327578295665        3.11478218151047       -0.08539065101181
C            0.72462194239252        3.10702071509042        0.14714633468705
C            1.66672584296060        2.09527505868103        0.26847727009410
H           10.72204430092284       -0.72650404943778       -1.73366420129544
H            9.16581528866175       -1.51217320477535       -1.49087738502720
H            9.90458726685554       -0.57099110567526       -0.18221488428704
H            8.24823898815151       -0.33114163496262       -3.53743234364131
H            9.87113951986412        0.33067393723655       -3.76126133584992
H            8.47484361297050        1.40501043657733       -3.73566726658055
H            9.55013028987637        2.76466603307746       -1.85534701767257
H           10.05676291918477        1.95654613881541       -0.37349235574010
H           10.94922424921889        1.69362259312218       -1.87530727739594
H            7.34187617556762        2.65999657856946       -2.26730133886280
H            5.14794616698714        3.13921194625595       -1.33667169304182
H            7.66388407332871       -0.89939243379809        0.09619959179339
H            6.13534759213336       -2.19303328986107        1.85227852199953
H            3.10037468094552       -2.95073535022659        5.28435062083741
H            3.43714086967628       -4.65737896746122        5.01797862829535
H            2.32739615102813       -3.81467486472836        3.94248031539383
H            6.57357502926179       -3.07917315334700        3.88877066638320
H            5.83222750940799       -4.18337225416875        5.04500267333828
H            5.58256716628903       -2.44105075690688        5.19861011267907
H            3.72068347319317       -4.56789631279509        1.95434189817883
H            4.71854663038517       -5.45274836551265        3.11314853329890
H            5.46856074409184       -4.34628731163940        1.96491811221867
H            2.31782475104752       -1.55965312733298        3.69214963059878
H            2.01853031227566        0.51275834406377        2.47156753015643
H            4.39916595869962        4.02496344169310        0.81610298183354
H            2.74982760953682        5.84248539495441        0.53740789839525
H            0.03017321468538        6.26913667610186        0.04746272632260
H           -2.69298517949701        5.87266880298330       -0.44818862244485
H           -4.35846972567310        4.07347752862929       -0.74844363623547
H           -5.11926230127511        3.17099673712896        1.39115291975343
H           -7.31286846401211        2.71173837256163        2.31482748368190
H           -8.76736831435000       -1.53243086156635        1.77278733954918
H          -10.00762629870484       -0.95727635417588        2.88481486350426
H           -8.29828579437642       -0.72234966379922        3.26547402209674
H          -10.08803932286043        1.54754901764107        0.07800240790161
H           -9.84489420619221       -0.18711635636975       -0.11317961652896
H          -11.07947545485353        0.40784231731343        0.99434331757460
H           -9.58469856937054        2.66547108653664        2.30746926791167
H          -10.51585173542258        1.41795303148428        3.12911282630755
H           -8.85402133590327        1.72345282642551        3.62043663738866
H           -7.67548437703336       -0.82258802170919       -0.07966679613097
H           -6.15026463941652       -2.11547517624233       -1.85892196988567
H           -3.47420030470652       -4.56053479940613       -5.05872245679694
H           -2.35541891604158       -3.74522286497603       -3.97162001526610
H           -3.12193215394700       -2.85304390051377       -5.29863854926209
H           -6.59521813503385       -2.97459228391795       -3.90165138955804
H           -5.60057532689285       -2.32717137551659       -5.20413822154499
H           -5.86399494119093       -4.06924082011422       -5.07315319889006
H           -4.75897295542414       -5.37299929671670       -3.16046183304869
H           -5.49646850004110       -4.27573566358328       -1.99526555060805
H           -3.75061486394664       -4.51270915938624       -1.99221865999624
H           -2.32256778340833       -1.49722113408195       -3.68248075663250
H           -2.00560885000073        0.55641495187054       -2.43563091700911
H           -1.37085829542049        1.07286740773672       -0.13316917728724
H            1.38345778288182        1.05850960008127        0.17307885832038
