110
 energy: -148.308998416262 gnorm: 0.000122665616 xtb: 6.7.1 (edcfbbe)
C            3.52203621711765        5.46043088151576        0.72684615255362
C            4.72863029774245        4.87154666979627       -0.01993103121655
C            5.99264919325822        5.21763402350805        0.77320656913631
C            4.84600173036970        5.51779030956593       -1.40880188995989
C            4.52987890779866        3.37153901639289       -0.18296593471201
C            3.40942955190790        2.90981567015599       -0.88521941261024
C            3.14750963148229        1.56352208756239       -1.07908570335503
C            4.02987320118236        0.64344828091278       -0.53655910931219
C            5.18427816473480        1.08271994574479        0.15231473874218
C            5.42524807382564        2.44005795935485        0.32814406444977
C            5.90926826079233       -0.09880351672126        0.52764186429901
C            7.08869347217504       -0.30487550883667        1.23324465236112
C            7.53195812209563       -1.59960605877875        1.47355325699684
C            8.81522165383646       -1.89573610903039        2.23623265544718
C            9.75505137249788       -2.71985018367441        1.34308872352533
C            8.47279788803890       -2.69235345061365        3.50453857903561
C            9.55793283012577       -0.62449189828980        2.65943328447010
C            6.75767534844151       -2.67056511619463        1.00913889849908
C            5.57901855902909       -2.49379650252882        0.30335277276274
C            5.16454079275105       -1.19823923760448        0.04083595901554
N            4.03090649396880       -0.73730683022441       -0.60098067979400
C            3.05835037308784       -1.52451658618368       -1.21918990124318
C            3.45730934828158       -2.55985517508016       -2.07253044142180
C            2.50509040777467       -3.36040359501485       -2.71433673362177
C            1.17288845152728       -3.10056955791998       -2.47185057751524
N            0.05613816422355       -3.72340190249509       -2.96662114036884
C           -1.07487540600265       -3.13186870333443       -2.46749974276775
C           -2.40061158915439       -3.42804435389778       -2.70501667303789
C           -3.37182742712946       -2.65561759996732       -2.05786331144798
C           -2.99854659258126       -1.61067047010903       -1.20377514685800
N           -3.99021253467992       -0.85429003451778       -0.57933053413509
C           -4.02630246143156        0.52609279243045       -0.50417121734347
C           -3.17005453456812        1.47331305149788       -1.03684218710786
C           -3.46388892347750        2.81598427277562       -0.83384780488652
C           -4.59417611064771        3.23887828510370       -0.13190270418576
C           -4.91443622685971        4.70991627325968        0.09233853965586
C           -6.26610947110876        5.03334624680117       -0.56259387986468
C           -3.86095427465218        5.64877664403519       -0.50354776517961
C           -4.99196101895456        4.98089087846509        1.60277367700782
C           -5.46761997739052        2.27534717666566        0.36975380197118
C           -5.19517611966078        0.92770276617451        0.18640751898356
C           -5.88846205745976       -0.27591263210213        0.54976109437485
C           -7.06457708098354       -0.51999080148889        1.24927084713130
C           -7.47273521057174       -1.82827791853769        1.47816039700252
C           -8.75179433694983       -2.16542687285587        2.23061088682109
C           -8.39544635054635       -2.96016182929559        3.49624737254123
C           -9.66175730338619       -3.01029630386426        1.32590089207388
C           -9.53338324297255       -0.91856613918514        2.65629472152200
C           -6.66624526824934       -2.87412759414689        1.01103355969015
C           -5.49017764935066       -2.65922322375398        0.31056185041118
C           -5.11226083948360       -1.35107374132393        0.05680308918436
C           -1.65649245596265       -1.30555208751923       -0.95996133080382
C           -0.67297169297200       -2.07414944809288       -1.59540120659218
C            0.74526455017698       -2.05431145670899       -1.59860223778621
C            1.70973513872062       -1.25719026524525       -0.96900129029957
H            3.41853976323150        4.99077347132207        1.70328722691345
H            2.59890580325557        5.30524714206753        0.17532438501047
H            3.65715087033729        6.53052369170469        0.87069198808547
H            5.95242845733754        4.79823008759390        1.77602449724977
H            6.07786268515105        6.29880846893145        0.86439028229978
H            6.88419942153309        4.85278800246662        0.26809430178390
H            5.68243986559515        5.08564935340261       -1.95487781790752
H            3.94345248383559        5.36718227286131       -1.99453214474267
H            5.01360118283930        6.58838948404338       -1.31008187112843
H            2.71491822948189        3.62089016338673       -1.30510227050801
H            2.28515982171029        1.24914093886634       -1.64710953610783
H            6.31289830542171        2.74270162702588        0.85734990714650
H            7.63480028546276        0.55276389162004        1.58805531476245
H            9.30864446860031       -3.67089000744916        1.06634143416173
H           10.68715086634509       -2.92145929747740        1.86712838873603
H            9.98299311484062       -2.17181592748448        0.43073442695857
H            8.00493569619824       -3.64266266679374        3.26240210883530
H            7.78687520116317       -2.12506161352747        4.13089873969684
H            9.37700665210786       -2.89316916772187        4.07563584080995
H            9.83659442906997       -0.02781109568455        1.79369023990780
H           10.46973126212862       -0.89693428295182        3.18756568880921
H            8.95046833433503       -0.02077417692606        3.32993957031656
H            7.07640915188644       -3.68221476815636        1.20730872789422
H            4.99938943606075       -3.34530386279988       -0.01913780135996
H            4.50612394614337       -2.70715505105844       -2.27363874933091
H            2.81439688130445       -4.14009809688400       -3.39369568763663
H            0.06566489201217       -4.50939315079982       -3.59658562548086
H           -2.69089597064305       -4.21505113940723       -3.38433280610888
H           -4.41686642882084       -2.83061855164440       -2.25628108237563
H           -2.29913750676130        1.18755029520448       -1.60683536517854
H           -2.78290111180340        3.53977687568158       -1.24897104624256
H           -6.22668229669455        4.82268380636753       -1.62972879158609
H           -6.50548715117512        6.08609197003894       -0.42654710881512
H           -7.06855914836456        4.44295284670639       -0.12906869188271
H           -3.79150156868368        5.52641784636111       -1.58214638465621
H           -4.14107975052751        6.68082555717861       -0.30092331040085
H           -2.88357918243381        5.47301552392643       -0.05969253409719
H           -4.04379990251545        4.73539868662548        2.07747123942076
H           -5.20708683359811        6.03211176320733        1.78355354135754
H           -5.77144804767256        4.38839225623500        2.07359356957635
H           -6.36385556677055        2.55999132592192        0.89821269028607
H           -7.63568807076700        0.31948246115259        1.60811987517779
H           -7.89978775911812       -3.89550057243853        3.25123338016186
H           -9.29736455619758       -3.18960631155119        4.06013084875229
H           -7.72958844576577       -2.37799424516684        4.13056209881722
H           -9.18734283610782       -3.94726790927314        1.04776714179175
H          -10.59199932977046       -3.24009589193124        1.84157698990875
H           -9.89759479622420       -2.46381984040757        0.41463033578028
H          -10.44090427556562       -1.22031782621320        3.17573595216778
H           -9.82253995682932       -0.32445279678788        1.79220481525423
H           -8.94836618300156       -0.30218584557665        3.33518018700378
H           -6.95647144017132       -3.89560583893957        1.20199941894214
H           -4.88530041581844       -3.49211260009446       -0.01397680046630
H           -1.38968273105388       -0.53353148612996       -0.25655723418477
H            1.42477941180896       -0.49039688319732       -0.26690788754462
