110
 energy: -148.309154411081 gnorm: 0.000044842396 xtb: 6.7.1 (edcfbbe)
C            3.50809252492636        5.42564563861767        0.64976094790254
C            4.71436535505473        4.82761330355751       -0.09034934467995
C            5.97891388326133        5.18537334806365        0.69672810221566
C            4.82978264740880        5.45540923118604       -1.48782599433960
C            4.51624017529893        3.32542798163993       -0.23265754258958
C            3.39464385978304        2.85360392870054       -0.92613950436006
C            3.13172267139945        1.50424413844937       -1.09864752683187
C            4.01386074084233        0.59223485856455       -0.54266126940848
C            5.17114764754191        1.04144609723451        0.13519501967751
C            5.41317355791945        2.40142151980341        0.28947107704000
C            5.89660911619042       -0.13425160030342        0.52664584634923
C            7.07981627618540       -0.32955490693189        1.22932274815450
C            7.52355021998376       -1.62055543204828        1.48863976195078
C            8.81215250330973       -1.90494719715745        2.24668849542740
C            9.74461608946800       -2.74400830998661        1.35970591894496
C            8.47908903802130       -2.68057044911756        3.53038183242297
C            9.55876999933207       -0.62752224123855        2.64353999012950
C            6.74518840536638       -2.69842624575911        1.04794576586935
C            5.56242176866254       -2.53233933026176        0.34575675062904
C            5.14859732493177       -1.24123812619918        0.06198037236219
N            4.01273703053952       -0.78973123950474       -0.58331534835429
C            3.03423355834957       -1.58568735021325       -1.17896789975978
C            3.42340742826999       -2.64641690664385       -2.00575234378720
C            2.46399176355117       -3.45793689480247       -2.62253447169622
C            1.13401689892889       -3.18234716515185       -2.38435430945730
N            0.01144460898076       -3.80963828634978       -2.85928352219314
C           -1.11421897156744       -3.19298000801278       -2.37764461042237
C           -2.44283374772855       -3.48158732303280       -2.60765181146992
C           -3.40632288931308       -2.67809159279743       -1.98663819117750
C           -3.02225519889650       -1.61141358851325       -1.16530294843397
N           -4.00481224590523       -0.82070404879714       -0.56896431148366
C           -4.01970361530314        0.56140350994210       -0.54073562796584
C           -3.14934869720167        1.47684050286634       -1.10948536042791
C           -3.42627073669606        2.82495810648814       -0.95041475694566
C           -4.55032243588877        3.29200415002533       -0.25764360285093
C           -4.76559696342618        4.79343896473505       -0.13302976734040
C           -4.89442172401491        5.40191026620118       -1.53791977090089
C           -3.56358767439590        5.41552664020600        0.59403640653729
C           -6.03104573898327        5.14611138793691        0.65490111031038
C           -5.43461821327894        2.36399785973248        0.27876154837442
C           -5.17860108336361        1.00515087105198        0.13789970631910
C           -5.89027916382306       -0.17430447878318        0.54338755394162
C           -7.06879517362571       -0.37545653206993        1.25219139568512
C           -7.49879890052947       -1.66856407971140        1.52382175531537
C           -8.78188135875423       -1.95923656116320        2.28883670923887
C           -8.43678825733742       -2.72124415166670        3.57748397267073
C           -9.70928620263486       -2.81432604129536        1.41191684766731
C           -9.53944657310771       -0.68593602953901        2.67811465292030
C           -6.71165142893135       -2.74240043358202        1.08886141774255
C           -5.53334079181847       -2.57055256706017        0.38071222009873
C           -5.13325411269904       -1.27777460716338        0.08501420635527
C           -1.67726021583941       -1.31562205010132       -0.92687086427774
C           -0.70179064182656       -2.11434642060168       -1.53684853519578
C            0.71637196810750       -2.10802702777675       -1.54055093849147
C            1.68777526800470       -1.30227098537122       -0.93341119477015
H            3.40502818190455        4.96818490262637        1.63199177766072
H            2.58460942979340        5.26361360279403        0.10083260740341
H            3.64322835008242        6.49743716862163        0.78027580587169
H            5.94017586776425        4.77939636262775        1.70510775346081
H            6.06313294014285        6.26774812434701        0.77337149366851
H            6.87031409526002        4.81472207725103        0.19559514478245
H            5.66759219693853        5.01863272955128       -2.02808109370737
H            3.92774393261841        5.29405435205073       -2.07149774974057
H            4.99396753673951        6.52777531901621       -1.40348481635746
H            2.69955413357986        3.55831989644183       -1.35563448673053
H            2.26844958622703        1.18196785908317       -1.66077076632261
H            6.30245928695828        2.71176905805978        0.81139345328147
H            7.62859999371969        0.53348527368568        1.56642200272446
H            9.29525885817088       -3.69880518536824        1.10126785243741
H           10.68045136207921       -2.93827336850565        1.87983568690781
H            9.96618341454572       -2.21058373775571        0.43716938281643
H            8.00811857598308       -3.63402155985759        3.30745522990476
H            7.79898181849091       -2.10224671379768        4.15298701686384
H            9.38769333209500       -2.87334689142229        4.09724531350123
H            9.83080524746557       -0.04486793939008        1.76622235516149
H           10.47465107965976       -0.89204221974771        3.16861183904213
H            8.95698563495658       -0.01279626424276        3.30915015383764
H            7.06356359767842       -3.70693923503590        1.26193791200862
H            4.97988980343058       -3.38891634829089        0.04263710643295
H            4.47035173155414       -2.80488084395483       -2.20783017564790
H            2.76647849026193       -4.25791153830301       -3.28106158478180
H            0.01336546995130       -4.61561630839971       -3.46360058739374
H           -2.74152042131080       -4.28530587187587       -3.26334928259891
H           -4.45295595178531       -2.84699648938670       -2.18188177248074
H           -2.28483921100955        1.15772522387461       -1.67152939662835
H           -2.74071063120044        3.53251993095255       -1.39041941430259
H           -3.99209058066211        5.24587850268578       -2.12259643201132
H           -5.07331130419020        6.47285097113924       -1.46650042276906
H           -5.72774146152133        4.94669298468225       -2.06985896653934
H           -2.64021425944634        5.25579559125243        0.04425639730078
H           -3.71030512945829        6.48755047368564        0.70932925485787
H           -3.45203208322639        4.97375221800053        1.58248564831435
H           -5.98346501808705        4.75319208178796        1.66805883096714
H           -6.12761651443031        6.22830256149136        0.71850342121267
H           -6.92010629894483        4.75893683703720        0.16216996482766
H           -6.32506644094717        2.67033431047569        0.80108806602395
H           -7.62489517707289        0.48489309258855        1.58416068053053
H           -7.95812559274834       -3.67220997629345        3.36042647800998
H           -9.34138247353275       -2.91752918046751        4.14953309136479
H           -7.75949028901920       -2.13171176027840        4.19261203749950
H           -9.25180871206215       -3.76700845593682        1.16000179729814
H          -10.64160583629574       -3.01298737089245        1.93668312308444
H           -9.93874253634860       -2.29072542225015        0.48569144260286
H          -10.45097813876972       -0.95507738773727        3.20838851103632
H           -9.82000538158636       -0.11290219223226        1.79715480671488
H           -8.94143476493726       -0.06015319261608        3.33677863071196
H           -7.01940483231450       -3.75217274342866        1.31226468522632
H           -4.94381523812463       -3.42374723908326        0.08152931004351
H           -1.40262575708812       -0.52507112472917       -0.24743453855293
H            1.40939883705717       -0.51666226961330       -0.24980332786848
