  71
       -115.11602480
 N         -0.4059651994       -1.2011872314       -0.6947873704
 C         -0.2200824121       -0.1363295212       -0.2815120663
 C         -0.0739784967        1.1694781455        0.1760924560
 C         -1.2207858055        1.9449714845        0.3814181050
 C         -2.5650652963        1.3557952931        0.2919035965
 C         -2.8636057332        0.1324281885        0.8859854464
 C         -4.1296573424       -0.4031793559        0.7788326795
 C         -5.1193980608        0.2712725263        0.0661282639
 N         -6.3916915224       -0.2923016648       -0.0672390174
 C         -7.5935320357        0.3492063986        0.1561782547
 C         -7.8382912247        1.6393491558        0.6073489083
 C         -9.1553426894        2.0261365641        0.7715877181
 C        -10.2077398239        1.1534206525        0.5071722101
 C         -9.9695680466       -0.1419013693        0.0859572263
 C         -8.6560616610       -0.5523538734       -0.0873959004
 C         -8.0529148229       -1.7971089866       -0.4826403841
 C         -8.5669974488       -3.0291948805       -0.8594161750
 C         -7.6846262270       -4.0338249397       -1.2118110361
 C         -6.3094627712       -3.8141770191       -1.2088816855
 C         -5.7736103935       -2.5949999353       -0.8377510674
 C         -6.6540011393       -1.5920003918       -0.4546674527
 C         -4.8300555509        1.5074135787       -0.5091311985
 C         -3.5679828360        2.0482270679       -0.3835507233
 N         -1.1721468110        3.2448033519        0.6432067042
 C          0.0368799167        3.8258420742        0.7156647133
 N          1.1470860518        3.1806652288        0.6101482370
 C          1.2059922633        1.8541213615        0.3605145524
 C          2.4937034609        1.2690320973        0.2709034790
 C          2.7389717243       -0.1105076590        0.0775824373
 C          4.0162799522       -0.6012416817        0.0003859864
 C          5.1213399315        0.2526014344        0.1060931629
 N          6.4206119316       -0.2502044526        0.0159456962
 C          7.4254214432        0.2625466962       -0.7751072227
 C          7.3836581057        1.3135849902       -1.6831194818
 C          8.5427711542        1.6148901114       -2.3735361605
 C          9.7140608776        0.8867371825       -2.1787055270
 C          9.7542731263       -0.1796455914       -1.2965496299
 C          8.6046472995       -0.5008685111       -0.5929218245
 C          8.2784374870       -1.5277742315        0.3609432532
 C          9.0021324710       -2.5569106981        0.9416308543
 C          8.3694226659       -3.3723062383        1.8643075453
 C          7.0396489339       -3.1586528813        2.2192886966
 C          6.2977918638       -2.1379043221        1.6546883981
 C          6.9188609718       -1.3327943759        0.7078389305
 C          4.9003519721        1.6245675231        0.3069209466
 C          3.6290257997        2.1157801301        0.3871388440
 H         -2.1093549235       -0.3919060340        1.4514363423
 H         -4.3649879387       -1.3393104487        1.2612632200
 H         -7.0292759886        2.3161218813        0.8361337182
 H         -9.3716877080        3.0261271044        1.1167754166
 H        -11.2229699127        1.4939633642        0.6444589883
 H        -10.7850130424       -0.8238334742       -0.1008164283
 H         -9.6333931001       -3.1942052458       -0.8802537519
 H         -8.0637961752       -5.0012608110       -1.5048698165
 H         -5.6452541765       -4.6115665368       -1.5068056354
 H         -4.7076625069       -2.4283462274       -0.8597303487
 H         -5.5910969052        2.0256637529       -1.0725933267
 H         -3.3363801011        3.0036847060       -0.8282407696
 H          0.0637547830        4.8900935269        0.8946301465
 H          1.9131348382       -0.7924614104       -0.0225655803
 H          4.1791755313       -1.6531828660       -0.1819996373
 H          6.4729969866        1.8664858011       -1.8544955728
 H          8.5377071065        2.4282665609       -3.0833635370
 H         10.5998298857        1.1534822234       -2.7350687116
 H         10.6585652778       -0.7532647813       -1.1616743656
 H         10.0377651496       -2.7140976871        0.6813923964
 H          8.9152951699       -4.1813220267        2.3256783223
 H          6.5788963863       -3.8010211171        2.9544752128
 H          5.2742288548       -1.9648990819        1.9488825495
 H          5.7494424122        2.2802581541        0.4341909566
 H          3.4522516222        3.1664355024        0.5593755873
