  71
       -115.19478062
 N         -0.0348631768       -1.2900691152        0.5688383045
 C         -0.0182059002       -0.1482519172        0.4360793169
 C         -0.0055890551        1.2566499159        0.3712969424
 C         -1.2049755039        2.0022805891        0.4066471647
 C         -2.5242501415        1.3939067967        0.2626224091
 C         -3.6093775342        1.9655900271        0.9298830457
 C         -4.8676382865        1.4164806976        0.8238993471
 C         -5.0773394759        0.2927027824        0.0230548781
 N         -6.3466184905       -0.2702534236       -0.0884741658
 C         -7.5253803992        0.4175911754       -0.3200293259
 C         -7.7319996723        1.7703243858       -0.5477804725
 C         -9.0254420211        2.1946275267       -0.7883953164
 C        -10.0919177177        1.2996682043       -0.8154006167
 C         -9.8880609457       -0.0519994933       -0.6209194645
 C         -8.5973634263       -0.5013308717       -0.3767490902
 C         -8.0324935668       -1.8051143938       -0.1617156245
 C         -8.5791642663       -3.0791444437       -0.0866071700
 C         -7.7387583801       -4.1450795165        0.1660704820
 C         -6.3741416161       -3.9491065387        0.3628568800
 C         -5.8073727261       -2.6902303740        0.2925926450
 C         -6.6422062447       -1.6195201756        0.0074637934
 C         -4.0014307448       -0.2594806149       -0.6725455417
 C         -2.7398460180        0.2809630284       -0.5496328748
 N         -1.1732283102        3.3199177868        0.5924932524
 C          0.0051435604        3.8951038855        0.7093110791
 N          1.1777264266        3.3096348116        0.5911654932
 C          1.2005890655        1.9906728800        0.4084564997
 C          2.5175733262        1.3768194832        0.2685030529
 C          2.7278810649        0.2365046749       -0.5066779529
 C          3.9900702857       -0.3040925101       -0.6259887577
 C          5.0730672146        0.2792494039        0.0316648927
 N          6.3462826324       -0.2746637651       -0.0826673531
 C          7.5094075526        0.4190219057       -0.3684885685
 C          7.6882131939        1.7619999251       -0.6663365413
 C          8.9690400102        2.1941126603       -0.9550399290
 C         10.0497013218        1.3157245326       -0.9592678055
 C          9.8729122965       -0.0275599834       -0.6930940752
 C          8.5950380275       -0.4848061538       -0.4008210747
 C          8.0550858775       -1.7849986301       -0.1123100897
 C          8.6234069871       -3.0452181190        0.0159176711
 C          7.8042325895       -4.1104325014        0.3333432697
 C          6.4392534400       -3.9268126619        0.5396194931
 C          5.8511163086       -2.6817037867        0.4178804633
 C          6.6647002791       -1.6129927831        0.0711453155
 C          4.8687870390        1.4291933469        0.7960226646
 C          3.6092939655        1.9745792481        0.9023015830
 H         -3.4384248336        2.8338979930        1.5468493004
 H         -5.6934477673        1.8374216175        1.3766191049
 H         -6.9116639518        2.4718484711       -0.5532732689
 H         -9.2110647233        3.2437636043       -0.9641847927
 H        -11.0880960291        1.6709164901       -1.0032837635
 H        -10.7103975751       -0.7498889282       -0.6627605712
 H         -9.6403683567       -3.2268083951       -0.2176038679
 H         -8.1423913798       -5.1446436184        0.2258407211
 H         -5.7430484997       -4.7986087651        0.5773020639
 H         -4.7515248605       -2.5500959657        0.4677068648
 H         -4.1676916806       -1.1007362086       -1.3273299496
 H         -1.9266758039       -0.1428112825       -1.1183028205
 H          0.0100173754        4.9605228057        0.9001297415
 H          1.9096771136       -0.2118416607       -1.0481830940
 H          4.1508604050       -1.1695510277       -1.2499467726
 H          6.8557108463        2.4488011562       -0.6882966100
 H          9.1334363436        3.2358723284       -1.1867741633
 H         11.0354241215        1.6927708167       -1.1867098804
 H         10.7060392316       -0.7133207344       -0.7175362305
 H          9.6848367388       -3.1826120779       -0.1242834775
 H          8.2250595964       -5.0993517144        0.4356400090
 H          5.8256358121       -4.7746361503        0.8052632915
 H          4.7955862546       -2.5492830342        0.6011761893
 H          5.7012282760        1.8744016822        1.3192091756
 H          3.4418445212        2.8614618173        1.4931512105
