71
 energy: -115.167135047627 gnorm: 0.000118205362 xtb: 6.7.1 (edcfbbe)
N           -0.30727661364914       -1.40558027635196        0.66172276733726
C           -0.16953381778085       -0.26014756610280        0.55009431853412
C           -0.05338630883427        1.12154730641464        0.49125954288758
C           -1.20852494597469        1.91782747178996        0.50404419756026
C           -2.54651426294741        1.33940915835671        0.32439200655514
C           -3.61527434956525        1.85088736709994        1.06147886214355
C           -4.88279849030015        1.32817622706689        0.91914179989265
C           -5.11081872664326        0.28723049898306        0.01949903576576
N           -6.39305982452403       -0.25262494661273       -0.12685484794304
C           -7.55244727535586        0.46541879393808       -0.34445398253696
C           -7.72578519823408        1.83246812536490       -0.51755630785406
C           -9.00707568871020        2.29385450762006       -0.75896321615720
C          -10.09041812164560        1.42209467465480       -0.83694423520956
C           -9.91932501279484        0.05637977003223       -0.69036621184910
C           -8.64349558432058       -0.42959261723095       -0.44714346528754
C           -8.10333729520144       -1.75314347072063       -0.27414943112616
C           -8.66792559168485       -3.01956971764981       -0.25340993892884
C           -7.84182589828879       -4.10853391743021       -0.03514058890638
C           -6.47508691788039       -3.94275185805907        0.17529875746453
C           -5.88939208099004       -2.68988427014850        0.15945982473399
C           -6.71007305875933       -1.59621179231043       -0.08453286185494
C           -4.05257371936938       -0.20737815644436       -0.74122538331924
C           -2.78499626590742        0.31522385230691       -0.59060001622065
N           -1.16352583494472        3.22846224056783        0.71599706206321
C            0.04197174198875        3.78903318576005        0.91370006069238
N            1.16706552398167        3.15732393378592        0.84611483707676
C            1.22146257814373        1.83172239216326        0.58994966827593
C            2.50735516224319        1.25502771363354        0.41715805269117
C            2.72918050366303       -0.04520852474651       -0.09522267775125
C            3.99722200609208       -0.54151108606281       -0.25257605232342
C            5.11693354204755        0.22895413726123        0.08844891238342
N            6.40631012512595       -0.28372884312120       -0.06863560617298
C            7.46033348450763        0.36207977235622       -0.68008765742759
C            7.49181005863241        1.59990182448496       -1.31237101189941
C            8.68921879161560        2.00893746836596       -1.87081050211767
C            9.82684120756229        1.20727386567678       -1.81615892021011
C            9.79387448268207       -0.04086100311475       -1.21471529040063
C            8.60575097160602       -0.47129283391025       -0.64713820531180
C            8.20653013499309       -1.68306885331361        0.02145287521605
C            8.87119374344516       -2.85076640392524        0.35869419354833
C            8.17340496408362       -3.83764097044021        1.03679828244606
C            6.83836646354932       -3.65944861792668        1.39160935373674
C            6.15434161706910       -2.50206079378982        1.06667061272247
C            6.84022378325369       -1.52059588876562        0.36009899527026
C            4.91905018775503        1.52812885970296        0.58365492198981
C            3.65589432352580        2.02691458816991        0.73611615894361
H           -3.42890942429869        2.65320931537534        1.75880145835542
H           -5.69759915911291        1.70634036586068        1.51779386343482
H           -6.88895482027148        2.51263211351439       -0.47801315851420
H           -9.16923353170383        3.35283906588675       -0.89419989149078
H          -11.07613643485843        1.82047071162644       -1.02550340038789
H          -10.75768398556501       -0.61867815244555       -0.76885601587491
H           -9.72927546308206       -3.15002993916929       -0.39937254196021
H           -8.26170276506780       -5.10316402352521       -0.01727630464961
H           -5.85823989841264       -4.80964622507136        0.35965515383784
H           -4.83231743490666       -2.56892499290842        0.34144726123004
H           -4.23356371698743       -0.98573674741995       -1.46677795216874
H           -1.98020464335602       -0.05904092965319       -1.20537275778682
H            0.05681510949868        4.84703106243203        1.13405663660122
H            1.89022038236482       -0.65185880970636       -0.39563066447012
H            4.14077827423886       -1.52240292020907       -0.68158826296519
H            6.60847896762837        2.21582451269658       -1.37841019387294
H            8.74090187825676        2.96817706996721       -2.36369064026966
H           10.74446371432265        1.56169741211333       -2.26119650075896
H           10.67265101835143       -0.66680532062571       -1.19189019637530
H            9.91047098999042       -2.98597694772657        0.10134444038068
H            8.67303663520556       -4.75624013820129        1.30545391892349
H            6.32637588507854       -4.43865988291225        1.93602668298647
H            5.12602361879729       -2.36272590591541        1.36254918322570
H            5.77491110193960        2.11687207003268        0.87925276769575
H            3.50016405413072        3.02006022044967        1.12822747643045
