  47
  -71.0087788061000       0.424297061475294      !
 C         -1.1760270964       -2.7296217407        1.0970967337
 C         -0.5152169681       -1.9193185939       -0.0500961417
 C         -0.9029781209       -2.4499845140       -1.4557176549
 C          0.9762740595       -2.1487631752        0.0343751074
 C          1.4675344838       -3.4457109525        0.0694921677
 C          2.8246320957       -3.7113257212        0.0839187338
 C          3.7292351029       -2.6555765282        0.0481973614
 C          3.2735870354       -1.3602155324        0.0175784326
 C          1.8942279335       -1.0859387588        0.0239399623
 N          1.4429992825        0.2104291570        0.0221540531
 C          2.4125046137        1.2558869621       -0.0113644489
 C          2.7609219259        1.8318854983       -1.2251876325
 C          3.7090943607        2.8394914510       -1.2574868245
 C          4.3068546676        3.2704417393       -0.0840170368
 C          3.9565749190        2.6940186208        1.1255121125
 C          3.0095355460        1.6857514822        1.1671956976
 C          0.1154338145        0.5585959889        0.0680559316
 C         -0.2304742250        1.8975539487        0.1566816253
 C         -1.5556337220        2.2846450017        0.1777019171
 C         -2.5970990465        1.3289025174        0.0913554422
 C         -3.9234958781        1.7478554960        0.0904645832
 C         -4.9583046846        0.8013643054        0.0042941720
 F         -6.2369209886        1.2438987311        0.0071034086
 C         -4.6949773766       -0.5360455292       -0.0804398806
 C         -3.3601530107       -0.9684372792       -0.0789015365
 C         -2.2717699276       -0.0663014890        0.0086056772
 C         -0.9144345154       -0.4663987295        0.0246417301
 H         -0.4298998678       -2.9811158810        1.8484011354
 H         -1.6119979234       -3.6548325751        0.7288196186
 H         -1.9511292967       -2.1515689702        1.5904236091
 H         -1.9362628030       -2.2268618733       -1.6980418008
 H         -0.2736245359       -1.9696561057       -2.2034953546
 H         -0.7450354874       -3.5235086818       -1.5175020956
 H          0.7741627832       -4.2724572135        0.0874261184
 H          3.1771817673       -4.7304467621        0.1146134115
 H          4.7910492383       -2.8501265640        0.0449937022
 H          3.9791946266       -0.5446165933       -0.0114916412
 H          2.2859983059        1.4888964027       -2.1321706389
 H          3.9812090878        3.2876833441       -2.2009647195
 H          5.0454723705        4.0570108400       -0.1128919037
 H          4.4202346637        3.0300647712        2.0407067612
 H          2.7267313798        1.2283117301        2.1034879804
 H          0.5379870502        2.6524866359        0.2110763831
 H         -1.8113191870        3.3294474791        0.2518900457
 H         -4.1667687629        2.7958234226        0.1569440337
 H         -5.4982192537       -1.2521269728       -0.1466894411
 H         -3.2041249958       -2.0285862781       -0.1441907168
  47
  -71.0084325745000       0.294139261433076      !
 C         -1.2304791188       -2.7754058332        1.0057593917
 C         -0.5097414565       -1.9207221675       -0.0697997702
 C         -0.8239148410       -2.3933438625       -1.5145476047
 C          0.9766681709       -2.1555040016        0.0724770947
 C          1.4630334565       -3.4543743671        0.1097576579
 C          2.8186421799       -3.7245518797        0.1455394510
 C          3.7268896910       -2.6719725327        0.1179170708
 C          3.2760232591       -1.3748161078        0.0818724743
 C          1.8982893387       -1.0953696073        0.0817395456
 N          1.4478918479        0.2021533216        0.0854815007
 C          2.4056373539        1.2527557110       -0.0078345171
 C          2.6062170137        1.8840577320       -1.2283321261
 C          3.5391192924        2.8998962774       -1.3300592013
 C          4.2705263755        3.2873056564       -0.2175905361
 C          4.0673135052        2.6577617802        0.9988859132
 C          3.1363449687        1.6399423787        1.1098905298
 C          0.1203470416        0.5467409411        0.1581900229
 C         -0.2243291672        1.8775748688        0.3352520670
 C         -1.5484711703        2.2660737322        0.3576875717
 C         -2.5889691826        1.3240099714        0.1644936365
 C         -3.9133105257        1.7484243667        0.1452941227
 C         -4.9462515682        0.8152609315       -0.0441730284
 F         -6.2231287292        1.2622778670       -0.0586471550
 C         -4.6831850358       -0.5148796575       -0.2106257573
 C         -3.3510134749       -0.9529871854       -0.1895834687
 C         -2.2646351120       -0.0640357047       -0.0003647955
 C         -0.9104619439       -0.4713636504        0.0461110513
 H         -0.5267723413       -3.0558694615        1.7868199695
 H         -1.6447422696       -3.6848811644        0.5778632132
 H         -2.0321904237       -2.2167972354        1.4775715454
 H         -1.8462690144       -2.1679270014       -1.7975429292
 H         -0.1634245160       -1.8774710021       -2.2100434010
 H         -0.6522556325       -3.4622241932       -1.6124941178
 H          0.7669015877       -4.2789774739        0.1086431043
 H          3.1673022718       -4.7448772035        0.1805005233
 H          4.7880754120       -2.8698899075        0.1235244627
 H          3.9854857086       -0.5627494262        0.0537737227
 H          2.0270909541        1.5757402308       -2.0860340977
 H          3.6961646828        3.3891564900       -2.2792388219
 H          4.9972367853        4.0810317072       -0.3000840963
 H          4.6333625098        2.9606337417        1.8669669693
 H          2.9666837495        1.1443466909        2.0540663780
 H          0.5455237785        2.6227536936        0.4604700220
 H         -1.8048061218        3.3024223318        0.5085783270
 H         -4.1562685311        2.7901994090        0.2777405146
 H         -5.4856326474       -1.2201421206       -0.3560269331
 H         -3.1940428479       -2.0066259605       -0.3230978093
  47
  -71.0077490836000       0.142706031266778      !
 C         -1.3029698492       -2.8368471619        0.8290434273
 C         -0.4935813435       -1.9245485738       -0.1249370267
 C         -0.6786260883       -2.3117770082       -1.6168043216
 C          0.9782764886       -2.1730148149        0.1212731288
 C          1.4529355493       -3.4751147127        0.1909305696
 C          2.8041990341       -3.7542647779        0.2784629346
 C          3.7214507446       -2.7103149888        0.2548741944
 C          3.2821264941       -1.4098182160        0.1858549010
 C          1.9083825322       -1.1199015614        0.1550753372
 N          1.4601103430        0.1799276702        0.1528824637
 C          2.3882779342        1.2432390384       -0.0166039887
 C          2.3984273433        1.9350037351       -1.2226957683
 C          3.2902532919        2.9725723702       -1.4142837206
 C          4.1735456124        3.3270607247       -0.4046028615
 C          4.1584058086        2.6421336774        0.7988309528
 C          3.2689470329        1.6015072268        0.9999032816
 C          0.1320145139        0.5160402573        0.2684224157
 C         -0.2082768332        1.8234957663        0.5769426431
 C         -1.5311205192        2.2125585592        0.6215287772
 C         -2.5678153263        1.3083202500        0.2792892657
 C         -3.8888275360        1.7424834796        0.2658668065
 C         -4.9170386339        0.8508993392       -0.0804883073
 F         -6.1908829685        1.3065844922       -0.0817199982
 C         -4.6525454132       -0.4471942025       -0.4149815553
 C         -3.3243834401       -0.8961956511       -0.3984288102
 C         -2.2449923316       -0.0538635418       -0.0376556149
 C         -0.8994465776       -0.4829155716        0.0504797345
 H         -0.7146418109       -3.0478550329        1.7198045684
 H         -1.5573766799       -3.7798597127        0.3519725864
 H         -2.2198089600       -2.3556131246        1.1521177214
 H         -1.6814075607       -2.0995255482       -1.9698556077
 H          0.0177665509       -1.7360727253       -2.2248302025
 H         -0.4640335966       -3.3675806084       -1.7627516517
 H          0.7528258810       -4.2955722832        0.1700654234
 H          3.1431094536       -4.7765078886        0.3435407529
 H          4.7803992480       -2.9162711022        0.2910493359
 H          3.9996443868       -0.6052887149        0.1573978287
 H          1.7023566238        1.6532715570       -1.9989098769
 H          3.2978393109        3.5050768893       -2.3531274751
 H          4.8690230073        4.1381788808       -0.5565664656
 H          4.8402178737        2.9206914382        1.5883779039
 H          3.2426696107        1.0708377298        1.9401092562
 H          0.5651216489        2.5444587436        0.7922190744
 H         -1.7891409404        3.2244549405        0.8896098816
 H         -4.1333702519        2.7599254525        0.5245097313
 H         -5.4506239925       -1.1183811353       -0.6887555057
 H         -3.1639413966       -1.9198466041       -0.6815364528
  47
  -71.0077232495000       0.138857645824851      !
 C         -0.6530552897       -2.3086397986        1.6036205188
 C         -0.4889294761       -1.9229094250        0.1089373539
 C         -1.3115924682       -2.8373120399       -0.8318320925
 C          0.9794422011       -2.1697842769       -0.1595891613
 C          1.4560800557       -3.4705263133       -0.2394493700
 C          2.8059830848       -3.7454506747       -0.3578257272
 C          3.7208928638       -2.6990063011       -0.3620017746
 C          3.2800389102       -1.3999054235       -0.2796350911
 C          1.9068860120       -1.1152322604       -0.2072727151
 N          1.4576879174        0.1832861398       -0.1806290174
 C          2.3855531473        1.2419058142        0.0237815939
 C          3.2267110559        1.6751599792       -0.9966629716
 C          4.1153888287        2.7082541060       -0.7568121445
 C          4.1702656641        3.3090108856        0.4897940493
 C          3.3277087101        2.8778787820        1.5042554485
 C          2.4353233049        1.8486817056        1.2734444618
 C          0.1289330052        0.5206133251       -0.2780957162
 C         -0.2128804507        1.8330218455       -0.5620843849
 C         -1.5364985277        2.2210072540       -0.5963283441
 C         -2.5700694363        1.3109647974       -0.2604000901
 C         -3.8916940864        1.7432856310       -0.2354021257
 C         -4.9164206300        0.8481985119        0.1118691152
 F         -6.1906700873        1.3024064947        0.1251959190
 C         -4.6482004373       -0.4518168880        0.4363433033
 C         -3.3198380532       -0.8995656859        0.4060026225
 C         -2.2441026197       -0.0537195042        0.0428714423
 C         -0.8991546938       -0.4815110964       -0.0612119818
 H         -1.6532329277       -2.1035464839        1.9681578820
 H          0.0456825204       -1.7258807959        2.2022240623
 H         -0.4283881068       -3.3625137364        1.7492669776
 H         -1.5729871885       -3.7726648564       -0.3435159250
 H         -2.2250924451       -2.3499105474       -1.1555401337
 H         -0.7299086301       -3.0639595359       -1.7230910341
 H          0.7592177554       -4.2931957341       -0.2018440289
 H          3.1463197843       -4.7668775055       -0.4281300571
 H          4.7789222309       -2.9024826304       -0.4282795320
 H          3.9940182823       -0.5915342513       -0.2731041917
 H          3.1711985724        1.2074146984       -1.9684928529
 H          4.7662103646        3.0467716189       -1.5490854904
 H          4.8652901233        4.1143435480        0.6718278491
 H          3.3661726555        3.3447808980        2.4766874184
 H          1.7691407943        1.5085238101        2.0525469400
 H          0.5599975690        2.5573295688       -0.7677794570
 H         -1.7972774029        3.2360513237       -0.8493929657
 H         -4.1388552642        2.7626902247       -0.4837496846
 H         -5.4436113976       -1.1253720027        0.7121660434
 H         -3.1564358996       -1.9258220619        0.6782258706
