102
 energy: -132.640174483882 gnorm: 0.000086287460 xtb: 6.7.1 (edcfbbe)
C            7.14832581184021        4.88181355513659       -0.61004884931587
C            7.17450646599549        3.79478474080373        0.47414325628954
C            7.31820725941099        4.48186525945229        1.83481703961824
C            8.39278055876245        2.88343716827354        0.26731277801691
C            5.90883783243666        2.95986530320204        0.37036333927743
C            4.98950011461738        2.84268561789693        1.40785505422013
C            3.84900372744479        2.07282838143018        1.27610899609256
C            3.59407645109910        1.38867729755781        0.09323223934651
N            2.41721335220019        0.60939433389393       -0.03768349484386
C            2.53625292808740       -0.76639459152692       -0.12500817624179
C            3.80274139275896       -1.35066569610987       -0.05568477384482
C            3.97240621859949       -2.70638260907302       -0.26659757606138
C            2.88266157180453       -3.52272171754098       -0.58775225451626
C            3.12296789161224       -4.99181758322044       -0.89098140290555
C            3.75977541539777       -5.65985293773120        0.33642514975698
C            4.07317036889532       -5.10224750656411       -2.09237253991564
C            1.83677214336339       -5.74971908417363       -1.22941102647700
C            1.62436706253134       -2.94456913963264       -0.58225746064585
C            1.38520656407854       -1.59368088679632       -0.27532725474835
B            0.00213246494343       -0.95488747259232       -0.08594537771510
C           -1.37283911336984       -1.59428852418559        0.15178435671584
C           -1.58888841593424       -2.94954258039015        0.45580917085849
C           -2.83746762797282       -3.50372729295868        0.67908814601413
C           -3.05130689615006       -4.97814390999000        0.97778819231823
C           -1.75362064743309       -5.78906496011782        0.93281024658423
C           -4.01428013293037       -5.56988700772982       -0.06177382332510
C           -3.65672603393283       -5.11574375549752        2.38224115539089
C           -3.94296275893985       -2.64859210057793        0.63817047949239
C           -3.78369769548437       -1.29741669999873        0.39414634272615
C           -2.52177691069556       -0.75355067201996        0.14777129121616
N           -2.41039918678023        0.61208302179037       -0.05968370697554
C           -3.60673710729306        1.37589110728510       -0.11742050181296
C           -4.00146791422218        2.16146294476227        0.95755882767330
C           -5.16476748376222        2.90639303717321        0.88892498268118
C           -5.96695291506701        2.89274671569218       -0.24689898623562
C           -7.25234717315584        3.69589515052669       -0.36265882619611
C           -7.12758518657501        4.67213080725571       -1.54116362653569
C           -8.42300969734100        2.73281144709602       -0.60617757214741
C           -7.55709135659455        4.50771278900129        0.89921640698900
C           -5.55544020780189        2.09848088065096       -1.31699766056483
C           -4.39775535036579        1.35013566846067       -1.26040054695387
C           -1.20437032645304        1.29202314390365       -0.14606079350557
C           -1.19706320653510        2.67805982413951       -0.32016377925011
C            0.00786256333036        3.36637197856529       -0.39436738905783
C            1.20903013330599        2.67955483645453       -0.29035555025581
C            1.20948021312702        1.29098540297189       -0.13641954510074
C            0.00239760472385        0.56190618747364       -0.10021051414209
C            4.50284049402035        1.49844683401121       -0.95591337942132
C            5.63562268703414        2.27086555971821       -0.81231689721339
H            6.27433559847714        5.51762516405021       -0.48406344583826
H            7.11382029669744        4.44892092860853       -1.60587894236847
H            8.03926919081096        5.50215736795859       -0.53954021721082
H            6.48936339827255        5.16115245478788        2.02029092173371
H            7.36885700114786        3.75150988802285        2.63903154008187
H            8.23799895422704        5.06304328141367        1.85138384538937
H            8.40501470421229        2.09629833723069        1.01843268597868
H            9.31108155486773        3.45993574908367        0.35653255233034
H            8.37794992694012        2.41752576091889       -0.71400846241250
H            5.15019863495801        3.35161167716250        2.34392406836772
H            3.14615183920229        1.99465042187050        2.09272375240803
H            4.67202166896411       -0.74726716852787        0.15781797193129
H            4.96901231243462       -3.11427202107507       -0.19965043193724
H            3.10400883602007       -5.56064756869332        1.19910732622051
H            3.92245706477535       -6.71890135733441        0.14545472506019
H            4.71636630466989       -5.20741865230050        0.58257911108860
H            3.63169895162127       -4.62355408758182       -2.96421875716565
H            4.25933987162317       -6.14814069274913       -2.32910753461440
H            5.02710256005986       -4.62403463665022       -1.88792889614822
H            1.15046067787270       -5.74515027921942       -0.38631158908079
H            2.07609771153886       -6.78609976851274       -1.46133437143190
H            1.34252060891769       -5.31599937156315       -2.09566312462936
H            0.76445269253761       -3.54207152713257       -0.82746713039804
H           -0.71395681944113       -3.56920781277388        0.53129516101579
H           -1.97060755498563       -6.83491701603685        1.14330231699691
H           -1.04410206793820       -5.43680771457792        1.67799804803085
H           -1.29700895861539       -5.73168659347188       -0.05256054428434
H           -3.60378183718201       -5.45175007964907       -1.06259830504857
H           -4.98317040416667       -5.07956493629692       -0.03111367932590
H           -4.16433745370377       -6.63118205371568        0.12723638633134
H           -2.98328198205967       -4.69028284286169        3.12355252311745
H           -3.81720369831586       -6.16528263658159        2.62170559528908
H           -4.61016261764866       -4.59925115955183        2.45274101215810
H           -4.93899934926212       -3.02218063223630        0.81886425978110
H           -4.65715311881859       -0.66276163011476        0.41179956711622
H           -3.39190325177219        2.18308062025979        1.84920410802096
H           -5.43650050626698        3.49971958744704        1.74634588001874
H           -6.28353519050923        5.34143351526023       -1.38758426797926
H           -6.97811694960233        4.14529223058958       -2.47942530627836
H           -8.03147930799662        5.27127042936643       -1.62770021940028
H           -9.35621277487564        3.28786920182396       -0.67335249394815
H           -8.29276223464655        2.17426787258822       -1.52883182781692
H           -8.50226986573614        2.02249207094146        0.21422121283341
H           -6.76712395278392        5.22681206532280        1.10332697505873
H           -7.68151898323526        3.85816608319231        1.76255624136882
H           -8.48426959761760        5.05963400967123        0.75886411302571
H           -6.14559675640083        2.05968420833856       -2.21982647940374
H           -4.09640513563579        0.73909865603481       -2.09844787748271
H           -2.12051704355668        3.22631401457020       -0.42614593462291
H            0.00851978482745        4.43481893699670       -0.54054048171922
H            2.13638880076928        3.22867436589846       -0.34782971198774
H            4.30841521157047        0.97586220925241       -1.88113825699632
H            6.31725220745580        2.33809320894507       -1.64655197114015
