102
 energy: -132.729417554128 gnorm: 0.000063374469 xtb: 6.7.1 (edcfbbe)
C            8.36516351164308        2.98009859453311        0.18902567912960
C            7.21565877951731        3.74749721637068       -0.47937182236088
C            7.61995949932708        4.04969228937026       -1.92482868819052
C            6.99121983859669        5.08351646688297        0.24298652352598
C            5.94656066894143        2.91504418837731       -0.38699766024434
C            5.44602720889198        2.56734656421256        0.86657245176265
C            4.29587368238358        1.81621799708947        1.00274732383664
C            3.60980109760978        1.38562079712838       -0.12555425746588
N            2.41485163239063        0.61842696913830       -0.00230699023853
C            2.52732193294826       -0.74867138840806        0.16866247024433
C            3.80240437138746       -1.31892832773392        0.27880084559944
C            3.95665829602750       -2.66041079952054        0.52795326963435
C            2.85334891520093       -3.50017525856862        0.70126420993614
C            3.07625498200330       -4.96658351009510        1.03776406027730
C            3.90862680551839       -5.61939409358955       -0.07499977400041
C            1.76670887885245       -5.74865297246901        1.16830832130735
C            3.82812178855305       -5.06292309377143        2.37270814486879
C            1.60345119167526       -2.93307052237705        0.55108860620129
C            1.39126751949582       -1.58181395182220        0.24497827371875
B            0.00900560584976       -0.93757321856001        0.00410792272878
C           -1.37070056542067       -1.58481516025010       -0.24331312698456
C           -1.57757064056324       -2.93526402612428       -0.55658536146627
C           -2.82490485869529       -3.50387092266507       -0.72182560456452
C           -3.04210908433675       -4.97073557595681       -1.06005274563206
C           -1.73033667063666       -5.75183296341884       -1.17254293533079
C           -3.77682174227763       -5.06989362409230       -2.40424713339873
C           -3.88802618923503       -5.62258375302036        0.04305128527946
C           -3.93126080766473       -2.66519605426872       -0.56378999425868
C           -3.78174620407113       -1.32452642309654       -0.30770573790166
C           -2.50900776185440       -0.75438271490359       -0.17256383078979
N           -2.40167846730095        0.61112618202833        0.01414481624810
C           -3.60247204470323        1.37065055132744        0.13004474827294
C           -4.14466667541885        1.62892928728844        1.37853220750678
C           -5.30988310072017        2.36762000547220        1.49435445400829
C           -5.96211113678306        2.86719683603575        0.37366747893894
C           -7.24385018095842        3.68112887289006        0.45617675713796
C           -6.99512353872568        5.06716941021692       -0.15535367416567
C           -8.34756136011494        2.95630284174699       -0.32715409318022
C           -7.72927624350890        3.87436495408173        1.89530814026762
C           -5.40049871482543        2.60014394874159       -0.87378324374435
C           -4.23957514728060        1.86425260166941       -1.00114026093806
C           -1.20740900503473        1.29967077246697        0.02158365565391
C           -1.20127421879956        2.69541858772276        0.05044567140797
C            0.00243852839910        3.37188959712366        0.04298315676862
C            1.20811771848728        2.69935198810758        0.01652954443563
C            1.21825812835998        1.30337556961075        0.00987905822668
C            0.00654110390973        0.58072531587146        0.00995155078352
C            4.09413775784085        1.71985474258566       -1.37986825402285
C            5.24764820690650        2.47515011087515       -1.50454849813101
H            8.51510335443044        2.02238729566793       -0.30521230296335
H            8.15997660516387        2.79287402730894        1.23934549231586
H            9.28762435321228        3.55253567737749        0.11914748081561
H            7.82054936356426        3.13371120167697       -2.47569279953044
H            6.84487669365094        4.61369701844852       -2.43856351998230
H            8.52848694287923        4.64850483854234       -1.92845632400503
H            6.16068404005664        5.62088363807624       -0.21018981203906
H            7.88308091632917        5.70227219108920        0.17050978825666
H            6.76641444925777        4.93411356400393        1.29527772514677
H            5.95794977713696        2.88731900867244        1.76141246278579
H            3.92099653651325        1.55732899365593        1.98219378582998
H            4.68214474700507       -0.70023988171586        0.17950655167789
H            4.95971917078441       -3.05285440732292        0.60852566967879
H            4.88439009650298       -5.15073623156708       -0.16816831357574
H            4.05840324760612       -6.67612669522082        0.13806873706611
H            3.39472020174670       -5.52900485357620       -1.02994615294306
H            1.14142221670674       -5.33883602814501        1.95826600639142
H            1.98560074383460       -6.78569334101775        1.41662869350717
H            1.21451018409990       -5.73752110967854        0.23156755427528
H            3.99485434271377       -6.10528898518907        2.63777629952144
H            3.24763705199003       -4.59336300150636        3.16439339494666
H            4.79324845128914       -4.56640734297752        2.31874100668317
H            0.72654297628732       -3.53861321790648        0.69783975755724
H           -0.69828380218397       -3.53895966949232       -0.69632564267717
H           -1.94515583105679       -6.78969709195647       -1.42095355424223
H           -1.18976933348852       -5.73774935492812       -0.22907042955605
H           -1.09576165885909       -5.34333664002860       -1.95574777866752
H           -3.18554856996393       -4.60344845450077       -3.18974611753879
H           -4.74188214217702       -4.57196148244924       -2.36423237659310
H           -3.94155887698611       -6.11282301572223       -2.66834552190577
H           -3.38507184362728       -5.53261264424815        1.00384652535824
H           -4.03649613738762       -6.67918255609874       -0.17155818846080
H           -4.86423365214849       -5.15276034759634        0.12491783751615
H           -4.93271694482535       -3.05766061453081       -0.66226499544528
H           -4.66331169036870       -0.70625237867795       -0.22305060207682
H           -3.65011820932351        1.24786675438767        2.25994905835627
H           -5.70032041777171        2.54605495156694        2.48265345860106
H           -6.19896019814326        5.57788759459426        0.38242850773833
H           -6.70781160327956        4.99457594591072       -1.20056185059676
H           -7.89742635396096        5.67157498417921       -0.09159703241462
H           -9.27915294425760        3.51455500685706       -0.26404455471361
H           -8.08624914945820        2.84948909964744       -1.37620454308807
H           -8.51171548837973        1.96330467959526        0.08629364940928
H           -6.99285087175446        4.41120003108011        2.48876840887876
H           -7.94231945640798        2.91863700327009        2.36856201485952
H           -8.64716667497293        4.45871869022166        1.89186664563060
H           -5.87310885785959        2.97090627570991       -1.77064161129418
H           -3.81846926605962        1.66590804666246       -1.97591592488412
H           -2.12549164105767        3.25170737497485        0.06884297925701
H            0.00089257143802        4.45245766466817        0.05843233837175
H            2.13074799620525        3.25858701981998        0.01445463830983
H            3.56178744417434        1.38757263546917       -2.25900366778754
H            5.59126326437418        2.71484755718221       -2.49725917432366
