102
 energy: -132.729277593320 gnorm: 0.000039978849 xtb: 6.7.1 (edcfbbe)
C            6.94731647325291        5.21700566340263        0.53906700247953
C            7.20722827492316        3.88171026291668       -0.17264746472679
C            8.31955103351421        3.11193170851284        0.55348154515407
C            7.68663127112209        4.18480540889673       -1.59475110803583
C            5.93357966462244        3.05145563952121       -0.14721184476765
C            5.37218621584434        2.69777808120967        1.07858019146831
C            4.21652581249276        1.94669266490288        1.15438010551293
C            3.58550102646627        1.52361139497304       -0.00833099875282
N            2.38757590901540        0.75338922913051        0.05565713687294
C            2.49873944274644       -0.61761013888010        0.19010511096849
C            3.77285495452663       -1.18903603049856        0.30754925994271
C            3.92628305538257       -2.53859767022800        0.50872322806454
C            2.82200226927700       -3.38630947817046        0.62891660689356
C            3.04060664993978       -4.86621145121306        0.90379684629524
C            3.90969487892164       -5.46457232354287       -0.21171464176076
C            1.73092628998447       -5.65759493600742        0.95642860761626
C            3.75157828907651       -5.02206765000433        2.25525684290679
C            1.57378244901468       -2.81397887776790        0.48653858011404
C            1.36268620466022       -1.45350185677751        0.22382494111777
B           -0.01739244537547       -0.80426604828834       -0.01655716329961
C           -1.39456369759739       -1.44753427015844       -0.29064422420968
C           -1.60423411820128       -2.79015624460406       -0.61995956557151
C           -2.85187688646931       -3.36083472390190       -0.80332138714683
C           -2.96663854614348       -4.83958423243628       -1.14196666404179
C           -4.41590210711909       -5.28303659253071       -1.36040668745101
C           -2.38408747630992       -5.66076035164008        0.01712065142539
C           -2.18198251522597       -5.13084726275194       -2.42881626221992
C           -3.95818166050960       -2.52858683298688       -0.64338800639247
C           -3.80502811663678       -1.18823762912477       -0.37122346448308
C           -2.53582935963955       -0.61828458580504       -0.22119730660360
N           -2.42981628638124        0.74513436011268       -0.01774636115179
C           -3.63101195605829        1.50626717551095        0.08227378997883
C           -4.17656183283378        1.78698764021272        1.32448468719123
C           -5.33947014719783        2.53168200328398        1.42406378759273
C           -5.98661966293758        3.01419628052326        0.29298652921109
C           -7.26482639444936        3.83527003292622        0.35743153675204
C           -7.74614967673149        4.06755798906281        1.79215752362643
C           -7.01231385668229        5.20437911072026       -0.28975926001127
C           -8.37267874124388        3.09466790389970       -0.40497825337593
C           -5.42337059923199        2.72206514430497       -0.94806604240202
C           -4.26395711333193        1.98124917870298       -1.05915009848090
C           -1.23534333376948        1.43236654053070        0.01921866470687
C           -1.23010235086686        2.82770527734111        0.06404453258118
C           -0.02689102248871        3.50463150890473        0.08859345669525
C            1.17923793518354        2.83270103470849        0.07905189034891
C            1.19017958812688        1.43684543873740        0.05426939230379
C           -0.02089003638646        0.71364829495308        0.01926634660217
C            4.12941227539317        1.86553555980677       -1.23583708209558
C            5.28869136077674        2.61974206093878       -1.29991873484722
H            6.66814822810982        5.06611531588887        1.57806866454919
H            6.14192718080508        5.75604766013065        0.04439303211252
H            7.84243342426322        5.83477377332743        0.51376682890710
H            8.06070643265626        2.92473259132990        1.59186084164836
H            8.49295832490711        2.15411969429471        0.06719967299873
H            9.24539262470057        3.68273295359001        0.53123392060235
H            7.91160259395612        3.26888259910194       -2.13623705371519
H            8.59654485501982        4.77987566879642       -1.55039014821679
H            6.94144373435999        4.75292143021286       -2.14672914796728
H            5.84020873274002        3.01213505751743        1.99906099396825
H            3.79467050906875        1.68206322070328        2.11294793035840
H            4.65265545035769       -0.56517224724566        0.24996102859000
H            4.92866763380024       -2.93173353599199        0.59393746946234
H            4.88754783751844       -4.99276887735663       -0.25040032104032
H            4.05379087436606       -6.53041571589224       -0.04515135506783
H            3.42738446559065       -5.32798567427727       -1.17764670826427
H            1.08294564307788       -5.29425560138979        1.75080028995684
H            1.94691732654121       -6.70617963972413        1.15316212892806
H            1.20357074651844       -5.59715833266793        0.00687747490134
H            3.91834547644603       -6.07483198957040        2.47529416086377
H            3.14354133652690       -4.59459879585952        3.05006880511885
H            4.71378851022039       -4.51690042313142        2.25426114409910
H            0.69639290293203       -3.42443557449259        0.60557363798615
H           -0.72896674366240       -3.40301816672996       -0.75844059860143
H           -4.43772631886252       -6.34030736926899       -1.61846690417232
H           -4.87538381299007       -4.72783631747657       -2.17518334536535
H           -5.00790448109766       -5.14678677863841       -0.45821957731590
H           -2.92613439175232       -5.44951831037601        0.93682617234526
H           -1.33646826347720       -5.42444190482026        0.17904356303963
H           -2.46518801612887       -6.72513833165573       -0.19512227457707
H           -2.57516546123546       -4.53622378953250       -3.25094610177146
H           -2.26827440220552       -6.18354165075690       -2.69146265762799
H           -1.12773415463506       -4.89505207374902       -2.31371219319973
H           -4.96060557954714       -2.91158406706921       -0.74762184154794
H           -4.68761206793361       -0.57172222079187       -0.28388177911570
H           -3.68548828767096        1.42022206626186        2.21387341299172
H           -5.73213506960848        2.72870997315032        2.40795064988238
H           -7.96576986984048        3.12559110405576        2.28934411643396
H           -7.00437508077965        4.61312945911472        2.37083601125582
H           -8.65954792804779        4.65870971142368        1.77581036278330
H           -7.91107320759026        5.81500225139074       -0.23602295995541
H           -6.21045336316438        5.72400127254866        0.23075847087343
H           -6.73150206462437        5.10465126622249       -1.33447245247771
H           -8.54025245464655        2.11357211689508        0.03468553216875
H           -8.11287855747393        2.95911398211570       -1.45111148798148
H           -9.30191565394052        3.65819797213305       -0.35545929590186
H           -5.89294518151325        3.07747916299690       -1.85268636704490
H           -3.84075521614260        1.76453808503473       -2.02908444595536
H           -2.15466481053937        3.38368300343794        0.06918500763484
H           -0.02931214860872        4.58496557504128        0.11565183930385
H            2.10142068123438        3.39218121304818        0.10132415551087
H            3.63997981209404        1.53896077782681       -2.14164121974959
H            5.68019986549520        2.86509202953243       -2.27334125532507
