  94
       -127.76269506
 C         -2.4474539456       -3.5517102240        3.6892802591
 C         -2.2355746268       -2.2078581592        3.0624518038
 C         -1.0852096568       -1.9242230307        2.3351230525
 C         -0.8935145652       -0.6895227238        1.7527557487
 C         -1.8563333697        0.3146099292        1.8888789602
 N         -1.6645594205        1.5693151150        1.3063274798
 C         -2.7489300600        2.2692542199        0.7772829185
 C         -3.8060580708        1.5969249435        0.1564280402
 C         -4.8579132348        2.3052840329       -0.3837823284
 C         -4.8965085185        3.6961838746       -0.3304172862
 C         -6.0315198609        4.4560198714       -0.9457163732
 C         -3.8416770368        4.3596220343        0.2895411129
 C         -2.7836028395        3.6652807034        0.8364201274
 C         -0.3743133605        2.0591833533        1.1672935061
 C          0.5990833782        1.8140935577        2.1651012474
 C          1.9121930846        2.0929930882        1.9480938710
 C          2.3718204292        2.5940872630        0.6907471852
 C          3.7963591294        2.3850610699        0.2267786756
 C          3.3373410536        1.0563055358       -0.3268691235
 C          3.2103081128       -0.0997970179        0.5029194164
 C          2.3848384562       -1.1318738648        0.1758944033
 C          1.6304890440       -1.1010630271       -1.0222744356
 N          0.6171133698       -2.0153396084       -1.2712649684
 C          0.7178276259       -3.3236066690       -0.7962120143
 C          1.9470582523       -3.9893821376       -0.8244860731
 C          2.0559419921       -5.2704029989       -0.3296991658
 C          0.9546521625       -5.9323435444        0.2092380596
 C          1.0917127228       -7.3289982848        0.7337881772
 C         -0.2659040473       -5.2658088361        0.2327477177
 C         -0.3906540735       -3.9825312459       -0.2579919604
 C         -0.5492419021       -1.5880966517       -1.9084565040
 C         -1.0092601915       -0.2769591000       -1.7539227239
 C         -2.1570049252        0.1400104008       -2.3930382102
 C         -2.8915175528       -0.7258802201       -3.1956985113
 C         -4.1365646105       -0.2681116658       -3.8912791406
 C         -2.4271926129       -2.0299686704       -3.3512483401
 C         -1.2754685580       -2.4584223251       -2.7274425926
 C          1.9196863591       -0.0740208913       -1.9509049479
 C          2.7558992354        0.9491303300       -1.6282634373
 C          4.3112760296        3.3935778992       -0.8046434065
 C          5.6450640518        2.9387210091       -1.3919819702
 C          6.6940104395        2.7957181900       -0.2964731338
 C          6.1895834538        1.8335700674        0.7712803103
 C          4.8511766887        2.3051096490        1.3344267128
 C          1.3496112756        3.0518350571       -0.1984768514
 C          0.0328587122        2.7858103776        0.0221904177
 C         -3.0076772248        0.0403435351        2.6338587176
 C         -3.1893229695       -1.2016102000        3.2023917038
 H         -3.4051851106       -3.9708187967        3.3822343136
 H         -1.6558538018       -4.2397366661        3.4026401959
 H         -2.4564733273       -3.4677614004        4.7762717021
 H         -0.3305322389       -2.6880599857        2.2118212018
 H          0.0016125957       -0.4963308170        1.1828900696
 H         -3.7840502147        0.5191708582        0.0899690755
 H         -5.6647393633        1.7697592417       -0.8642009807
 H         -6.9626240073        3.8999387250       -0.8591731969
 H         -5.8396280893        4.6250252446       -2.0066281446
 H         -6.1534750971        5.4255584896       -0.4685073146
 H         -3.8554225937        5.4385164563        0.3507792295
 H         -1.9788448812        4.1920536206        1.3279115799
 H          0.2746345013        1.4107762043        3.1141626899
 H          2.6169252077        1.9199907086        2.7454960150
 H          3.7459547356       -0.1471008682        1.4374410516
 H          2.2684113689       -1.9665726982        0.8521930478
 H          2.8063231896       -3.4910436850       -1.2489068870
 H          3.0114707442       -5.7742689759       -0.3642240584
 H          0.1970557333       -7.6331089992        1.2717381679
 H          1.9472804422       -7.4061658856        1.4031660409
 H          1.2509844089       -8.0269898315       -0.0889202068
 H         -1.1332657089       -5.7566638787        0.6513998776
 H         -1.3416830830       -3.4728393812       -0.2135361844
 H         -0.4644306456        0.4093852242       -1.1248666576
 H         -2.4971342697        1.1566957334       -2.2559031241
 H         -3.9396412087       -0.1073367287       -4.9519843500
 H         -4.4937016706        0.6664850971       -3.4654561539
 H         -4.9220432343       -1.0174937964       -3.8097401907
 H         -2.9764511690       -2.7167557654       -3.9797250941
 H         -0.9232532817       -3.4693019451       -2.8730321793
 H          1.4692089022       -0.1234674263       -2.9324036307
 H          2.9687517206        1.6987864687       -2.3733710783
 H          4.4410195681        4.3569051239       -0.3045360578
 H          3.5994968425        3.5429282217       -1.6136590237
 H          5.9813943623        3.6592542557       -2.1414468871
 H          5.5077635252        1.9747844380       -1.8870832580
 H          7.6329436625        2.4311314559       -0.7189697825
 H          6.8863517621        3.7726299558        0.1545797693
 H          6.9206916628        1.7534847274        1.5793606227
 H          6.0604637642        0.8415025497        0.3323034256
 H          4.9666873411        3.2993926046        1.7735191357
 H          4.5493220581        1.6296115241        2.1318134528
 H          1.6218035557        3.5877383812       -1.0935159123
 H         -0.7097332861        3.0946498643       -0.6994789184
 H         -3.7517394189        0.8124964138        2.7659082243
 H         -4.0850859898       -1.3972057078        3.7748482918
