  116
       -173.12982094
 C          9.4477563892       -3.5158548881       -0.8098215469
 C          8.8514774479       -2.2118531104       -1.3572425996
 C          9.2375689068       -2.0426129126       -2.8334226449
 C          9.4544313647       -1.0443441763       -0.5705236535
 C          7.3357092010       -2.2724914967       -1.2473574919
 C          6.6385086235       -3.2897997732       -1.9071884133
 C          5.2712278706       -3.3894354082       -1.8148063468
 C          4.5450865710       -2.4594796652       -1.0686061988
 C          5.1983191392       -1.3965212388       -0.4225332763
 C          6.5962889415       -1.3585797564       -0.5229166549
 B          4.3086045850       -0.3894065451        0.3425563010
 C          4.5944535109        0.9730102541        1.0164193726
 C          5.7834785877        1.7102374815        0.9245325342
 C          5.9890443765        2.9129649284        1.5713250784
 C          7.2874832324        3.6985564560        1.4693402595
 C          8.3253682456        3.0113286643        0.5772656635
 C          6.9907689064        5.0838946259        0.8788382503
 C          7.8906535056        3.8494839741        2.8728735588
 C          4.9434162153        3.4125298685        2.3544908818
 C          3.7477747961        2.7428523759        2.4534257319
 C          3.5578524512        1.5348137063        1.7802330577
 O          2.3177353764        0.9902400171        1.9268476512
 C          1.9337000896       -0.0862605714        1.2073808267
 C          0.5936949653       -0.4395519700        1.2554835456
 C          0.1402016129       -1.4923462226        0.4691983072
 N         -1.2345838508       -1.7540264362        0.4162946904
 C         -1.8321530189       -2.9363547469        0.7883771497
 C         -1.2373012416       -4.1252027852        1.1852527542
 C         -2.0642933827       -5.1837817596        1.5053800108
 C         -3.4499272570       -5.0628241665        1.4337015925
 C         -4.0463193302       -3.8734921800        1.0641539830
 C         -3.2373447942       -2.7871583682        0.7498727865
 C         -3.4932706419       -1.4307375151        0.3410590784
 C         -4.6810893810       -0.7266192143        0.1386159813
 C         -5.9990460019       -1.3406386449        0.3859310439
 C         -6.3799954210       -1.6960280026        1.6760164798
 C         -7.6293105138       -2.2388950656        1.9117344199
 C         -8.5097457050       -2.4381149774        0.8616375343
 C         -8.1311533970       -2.1028482945       -0.4270733821
 C         -6.8830921670       -1.5580641851       -0.6649793935
 C         -4.5407414719        0.5768590995       -0.3300734040
 C         -3.2768034744        1.1353911471       -0.6646649254
 C         -2.0868367029        0.4403191187       -0.4397080110
 C         -0.7754162526        1.0239337573       -0.7830389051
 C         -0.3076155391        2.1506901230       -0.1129055141
 C          0.9451027508        2.6638173749       -0.3936043799
 C          1.7445856679        2.0605125345       -1.3500687179
 C          1.2745002262        0.9569335029       -2.0419932719
 C          0.0207586870        0.4437911699       -1.7649811076
 C         -2.2244708389       -0.8336482798        0.1074178359
 C         -3.5435004890        2.4230977511       -1.2492839385
 C         -2.7494417735        3.4145581976       -1.8153289101
 C         -3.3528043536        4.5640998055       -2.2850336221
 C         -4.7304594529        4.7464226729       -2.1905234828
 C         -5.5441366708        3.7719226095       -1.6477628103
 C         -4.9447953342        2.6036913618       -1.1985973932
 N         -5.5324601236        1.4930372411       -0.6366893613
 C         -6.8976487437        1.4033150782       -0.3164257170
 C         -7.2955230511        1.2353662492        1.0055357536
 C         -8.6387585288        1.1399153786        1.3137734570
 C         -9.5920316919        1.2309404106        0.3134380770
 C         -9.1982270536        1.4240397000       -0.9997071971
 C         -7.8555925177        1.5096163258       -1.3183594569
 C          1.0255958980       -2.2595285033       -0.2778739952
 C          2.3737602582       -1.9245426313       -0.2787036500
 C          2.8506483877       -0.8155969223        0.4357225145
 O          3.2005453853       -2.6823204490       -1.0340008618
 H         10.5337067873       -3.4846291671       -0.8679511279
 H          9.1017401509       -4.3773130435       -1.3740686184
 H          9.1609502583       -3.6519559567        0.2308953833
 H         10.3191516014       -1.9827089390       -2.9342981710
 H          8.8021914358       -1.1288726057       -3.2325865058
 H          8.8857340102       -2.8772022363       -3.4330732161
 H         10.5366841397       -1.0538191683       -0.6826565193
 H          9.2264047346       -1.1276174040        0.4895108042
 H          9.0882480623       -0.0908474870       -0.9434244412
 H          7.1709463764       -4.0244058996       -2.4917511350
 H          4.7360590533       -4.1873532513       -2.3067252084
 H          7.1007866865       -0.5779652591        0.0167605554
 H          6.5573151885        1.3079681564        0.2963672525
 H          9.2277916477        3.6180386299        0.5393307917
 H          7.9547724202        2.8982186877       -0.4388610848
 H          8.5950459910        2.0348554889        0.9725165312
 H          6.2982228863        5.6408033352        1.5035996388
 H          7.9099937579        5.6594226345        0.7927837298
 H          6.5517846160        4.9838124310       -0.1117193564
 H          7.2194034349        4.3856826222        3.5374771827
 H          8.8284230196        4.3984830039        2.8207635549
 H          8.0871038761        2.8702073294        3.3043785896
 H          5.0578305798        4.3456511588        2.8848510700
 H          2.9331913753        3.1395954456        3.0401987463
 H         -0.0944357577        0.1301039548        1.8580130417
 H         -0.1634000843       -4.2171427310        1.2426039545
 H         -1.6290622953       -6.1231365329        1.8130475783
 H         -4.0673988844       -5.9148235477        1.6766814123
 H         -5.1204087662       -3.7931202278        1.0152816446
 H         -5.6905947003       -1.5381360820        2.4932794245
 H         -7.9176105397       -2.5067921372        2.9179391274
 H         -9.4873531465       -2.8579059494        1.0469070998
 H         -8.8119093680       -2.2646251707       -1.2499713157
 H         -6.5849293417       -1.3003966189       -1.6711424380
 H         -0.9282769486        2.6133245016        0.6410694869
 H          1.3049797263        3.5303570859        0.1418927591
 H          2.7315272504        2.4494744240       -1.5547855326
 H          1.8904678971        0.4910537630       -2.7975538862
 H         -0.3462433528       -0.4158051554       -2.3069304102
 H         -1.6814337148        3.2878503775       -1.8918474567
 H         -2.7469286712        5.3398783032       -2.7293135446
 H         -5.1703105434        5.6643657422       -2.5517087704
 H         -6.6117807186        3.9137055608       -1.5725812512
 H         -6.5470992337        1.1780323451        1.7814472197
 H         -8.9428784095        1.0004675522        2.3403358176
 H        -10.6407708971        1.1556557117        0.5577724103
 H         -9.9394797933        1.4998179564       -1.7814830620
 H         -7.5397746893        1.6418942058       -2.3427620723
 H          0.6731634715       -3.0808608676       -0.8809659416
