105
 energy: -145.895363034504 gnorm: 0.000098273361 xtb: 6.7.1 (edcfbbe)
C           -0.07420167509544       -1.24975567239083        2.57455996991502
C           -1.55612297156488       -0.89788374907711        2.58186688574420
C           -1.87906863613660        0.19780967169689        3.59611708680077
C           -3.36587527764522        0.55756690110413        3.62601291201488
C           -3.78882512524414        1.41353929875119        2.43372711900376
C           -5.30473199277906        1.59693456339084        2.37919724123623
C           -5.78210434348576        2.44191406484043        1.19425928194289
C           -5.94747945424869        1.65779134194808       -0.11774829911221
N           -4.70660823769971        1.18292863908152       -0.65857655090681
C           -3.75819233186279        1.98889019709953       -1.25678138909106
C           -3.82027835594504        3.33613277162550       -1.56474306687750
C           -2.69675235468815        3.91755816970921       -2.16697547492507
C           -1.56605405096048        3.17585227043296       -2.44210443444737
C           -1.48919852925948        1.81934325679068       -2.12229328114014
C           -2.61098799378725        1.21344853667162       -1.55109319208005
C           -2.88050375872421       -0.10785037706430       -1.09385498009515
C           -2.12543883696322       -1.27640973816071       -1.06448283200907
C           -2.68113396016114       -2.41032138783073       -0.48773548047042
N           -2.00067378059928       -3.61150434110198       -0.39058009822065
C           -0.69673049632626       -3.93025719811853       -0.57011530543756
N            0.22791412937753       -3.00279535661669       -0.79118430476200
C            1.46096913823606       -3.47271639987844       -0.95878183723084
N            2.51053369181462       -2.65020653786370       -1.21055105115604
C            2.62799770520792       -1.27654535307858       -1.21262272586361
C            3.84523952321642       -0.74470788629313       -1.71198858946699
C            4.07829292732834        0.62012606969024       -1.73463892545506
C            3.09302165373802        1.46338240485334       -1.24648400171056
C            1.85930772450087        0.93461213010147       -0.73507563153172
C            1.63539857933651       -0.43833377188973       -0.72419733621781
C            1.08593766542065        2.04738341308395       -0.30835448479102
C           -0.19831778409488        2.17006357293696        0.23190612745761
C           -0.66917384453289        3.45511077847104        0.51806335312920
C            0.08431403397188        4.57598444530400        0.24797661240253
C            1.37228440010605        4.47326382550473       -0.30727247707470
C            1.85259152981740        3.20639034083107       -0.57767858205157
N            3.06095218483521        2.82729480996398       -1.13409843262161
C            4.13193842352708        3.73462705427394       -1.42889171139261
C            4.88955700218939        4.21440020536013       -0.17976297632805
C            5.76997557893924        3.14462252378318        0.47201130834821
C            5.01021820701845        2.20210441879653        1.40461542022740
C            5.91734533840811        1.09651100125785        1.94038800821854
C            5.16811693422010        0.05076082306842        2.76715435387625
C            4.23671901826994       -0.82107155564770        1.92609005427814
C            3.65033628469182       -1.97250544983889        2.73258018598975
N            1.80357626905254       -4.77099111553328       -0.93096649662160
C            0.80664689787505       -5.60192644060748       -0.67428684442965
O            1.13776537700539       -6.88744527317748       -0.62118407680592
C            0.08548320052727       -7.79232577714928       -0.34922355618353
N           -0.45404703488474       -5.25177341384733       -0.47580335823926
C           -4.00190470836960       -2.38936631365688        0.01667894689642
C           -4.76353019913829       -1.23335608694829       -0.00470255881867
C           -4.20172747723476       -0.08685446250686       -0.54266779594466
H            0.52504350145012       -0.37494608261254        2.33134750238122
H            0.12882984246349       -2.01984909044435        1.83372418033366
H            0.23792223215323       -1.61971001770875        3.54931495632046
H           -1.84924447202527       -0.57757909987531        1.58159197616595
H           -2.14014642214685       -1.79061148332965        2.82015246270455
H           -1.57597080558475       -0.14622171063581        4.58833132505098
H           -1.29441183272244        1.09098846996388        3.36345197452218
H           -3.95289618375963       -0.36435485425329        3.63369777662790
H           -3.59039973733105        1.09828004829060        4.54909149742895
H           -3.43947315039027        0.94042283420890        1.51946651416548
H           -3.30881475065479        2.39247285486657        2.50663915891185
H           -5.78583002287060        0.61684401803084        2.34366393907695
H           -5.62593983501795        2.08186629310691        3.30481215341354
H           -6.75714687487786        2.87320820505032        1.43197787473012
H           -5.08278765729996        3.26408436429457        1.03280621669054
H           -6.60421783587120        0.80093926487851        0.04769105016244
H           -6.42019754211736        2.31009345538884       -0.86079849589399
H           -4.69595672474694        3.93162091560241       -1.35673834213643
H           -2.72401197606286        4.96760950389999       -2.41677836557671
H           -0.71373546262110        3.65644711548558       -2.89957317370416
H           -0.61903657828903        1.23627407097887       -2.37515423061130
H           -1.13117695947499       -1.30572903881146       -1.47303639861402
H           -2.55466115903634       -4.41646088185006       -0.12617355234451
H            3.35177927888079       -3.17554230885861       -1.41593538849648
H            4.59769473263765       -1.42340672734924       -2.08338677042342
H            5.01168930980902        0.99880725438647       -2.12246396382975
H            0.72344017316894       -0.84761900683581       -0.32994564006824
H           -0.77003360975067        1.29640963258136        0.49256038947505
H           -1.65519092293981        3.56770355216236        0.94433130792737
H           -0.31070397303026        5.55690375588002        0.46550073426376
H            1.94567295778055        5.36293159993095       -0.51742635328529
H            3.70882523661892        4.60659165330133       -1.94014715500190
H            4.82642678838431        3.24341569242914       -2.11397623490176
H            4.17037283100389        4.58853627272621        0.55104647294360
H            5.51932767203262        5.05114818641382       -0.49006898122936
H            6.55565206236010        3.64143921216545        1.04702600075417
H            6.26279494175888        2.55956851397477       -0.30806403698714
H            4.17975976945637        1.74571849208927        0.87240665872821
H            4.59784266269400        2.77303135598840        2.24001538779162
H            6.40323540892467        0.59571601075052        1.09907093017212
H            6.70259557096959        1.54495897086070        2.55477349493639
H            4.59187630893034        0.54900533083286        3.55004183248450
H            5.90133708137426       -0.59491922605745        3.25751704427870
H            3.41934791759253       -0.21908590481693        1.52757176649186
H            4.79365494001518       -1.22238970147767        1.07626136873686
H            3.08391148996288       -1.59359859680443        3.58020550796258
H            2.98231802765116       -2.56702691700480        2.11380342752111
H            4.43947355852991       -2.62030342525658        3.10915639934616
H           -0.36415332372855       -7.58107351815366        0.62354219795223
H            0.53734848383831       -8.78192635801025       -0.35180952940498
H           -0.69012206280167       -7.72467603570277       -1.11532741950463
H           -4.41525533445327       -3.29314843114031        0.43856901025766
H           -5.76414312162968       -1.24297304252662        0.40012276964191
