105
 energy: -145.889843276183 gnorm: 0.000143809437 xtb: 6.7.1 (edcfbbe)
C           -3.51152686319258       -0.49886034454427        3.39182206158530
C           -2.08864214358660        0.01282891023216        3.20571801063061
C           -1.27488702482166       -0.89052619483503        2.28256261991564
C            0.17303631358229       -0.42133425155363        2.16623586019339
C            1.01999323527817       -1.29360675250451        1.23941233693661
C            1.37960585658904       -2.64938613001895        1.84938366393603
C            2.25808260710200       -3.51665679883051        0.93751771706406
C            1.46800439074032       -4.45015221930524        0.00749625401338
N            0.59822685375484       -3.74417935554137       -0.89031810745834
C            1.01976250646705       -3.01491574847343       -1.97833871616337
C            2.27819154689653       -2.93303295638090       -2.55461972797005
C            2.42985953088293       -2.12589552948617       -3.67082661110673
C            1.35720730662911       -1.41392999749375       -4.20254968648231
C            0.10105071523356       -1.48595714385603       -3.63294116769493
C           -0.07595119659500       -2.28887017029475       -2.50855094043418
C           -1.19613023118182       -2.57547115363006       -1.66629835928268
C           -2.50192794013056       -2.09853969822250       -1.62133680891606
C           -3.33044548205854       -2.54396132838385       -0.60668314489916
N           -4.61332079506399       -1.97266651970442       -0.45127777531526
C           -4.78316995655801       -0.66814916027650       -0.16893309790321
N           -3.72402185508360        0.14242896169193       -0.23728835148883
C           -3.94665892692218        1.38679878610579        0.14658676553628
N           -2.93991315089730        2.30474884160633        0.21442856274797
C           -1.62513761507859        2.24989424996328       -0.17158111522635
C           -1.10941578863316        1.13513816677937       -0.89202673930273
C            0.20762924782636        1.13508717377269       -1.33807852137335
C            1.00826182506602        2.22224661867391       -1.04527874211351
C            0.51156735722826        3.35161284010232       -0.27412255951628
C           -0.82273759341273        3.34708528366669        0.13891705176676
C            1.58257089254128        4.26296497768231       -0.15482214512461
C            1.72760200341225        5.51597963616834        0.46765432151304
C            2.96448797819924        6.16151884371768        0.38098252872374
C            4.02673727696874        5.60503879246254       -0.28980036466529
C            3.90029167366546        4.33878678873602       -0.92988178995644
C            2.68924623106226        3.70100320857095       -0.84792258482036
N            2.29927358864006        2.47429529567653       -1.38381607265473
C            3.11962256159642        1.60790891329689       -2.18121431733229
C            3.66787491091261        0.41727383267424       -1.38452772882917
C            4.55702433662914        0.84610545322254       -0.22059432736177
C            5.08252323420000       -0.35901605155390        0.55546543377779
C            5.93443076332128        0.05776463220513        1.75166959945707
C            6.49015865262506       -1.13117483017318        2.53644063895196
C            5.41544464120053       -1.92504039213871        3.27692441030885
C            6.02249516647759       -3.03686981252796        4.12401595025679
N           -5.13571457657492        1.86996119025674        0.53657319375823
C           -6.12862333105550        0.99099477141946        0.50962978168286
O           -7.34902712839378        1.38469622718721        0.84919456780808
C           -7.48946585697054        2.74324980704190        1.21811811488861
N           -6.01548675214330       -0.28807234832254        0.18563697280664
C           -2.90079335082880       -3.51517112518191        0.30192154872226
C           -1.60473060677278       -3.99827128215864        0.27171699223280
C           -0.73847199575652       -3.49258613152526       -0.68607854630993
H           -4.08034502109569        0.16545887855921        4.03912442359651
H           -3.50477445866313       -1.49088786833405        3.83883943873437
H           -4.02201908167930       -0.56355169987039        2.43399159505208
H           -2.11501932730685        1.02142160356639        2.78648904622314
H           -1.59778922141442        0.07327422658766        4.18079288634776
H           -1.30599540484001       -1.91059609080306        2.67032700413969
H           -1.73294680038811       -0.89583749845156        1.29163401934459
H            0.17478651370228        0.59946365788817        1.77638024640511
H            0.63057994166605       -0.39751574467361        3.15921706847589
H            1.94729282903201       -0.75794730899314        1.02134064390370
H            0.48163368203490       -1.42326057218235        0.30165713546861
H            1.91637193546494       -2.46707994271307        2.78412314805942
H            0.46914985119655       -3.19502028637992        2.09726027599795
H            2.89791972573519       -2.87238966484630        0.33088024963355
H            2.90583925262551       -4.14925951099708        1.54893869999667
H            2.17214974613820       -5.04735762122224       -0.58260238343297
H            0.86301454735327       -5.13620481043836        0.60398879296722
H            3.11909263971191       -3.48190711113498       -2.15815689262517
H            3.39956968335359       -2.05069808921461       -4.14109355966965
H            1.51474000579924       -0.79829826102218       -5.07662590832341
H           -0.72905525339597       -0.93183259460881       -4.04399888169482
H           -2.86113348822257       -1.38175102917068       -2.34149477602942
H           -5.39051145228675       -2.56522217591068       -0.19713653800430
H           -3.25373725713395        3.18030869664525        0.61786069372293
H           -1.75611314132784        0.30340662868645       -1.08914913052370
H            0.57637849442136        0.29927268796531       -1.90950551021428
H           -1.22781260889545        4.18543913599744        0.68595506108930
H            0.90287443049889        5.96432011251275        0.99748672135026
H            3.08418130020197        7.12468495983047        0.85654310011557
H            4.97246023986232        6.12048137426415       -0.34387009072754
H            4.74489042815917        3.92137448943903       -1.45515915785226
H            3.94591658067285        2.19534039320612       -2.58713592644689
H            2.51853011430550        1.22721091675287       -3.01375055492804
H            4.23360485559804       -0.21739253686607       -2.06905717861617
H            2.82722459234563       -0.16810152865562       -1.00838877400809
H            3.98763204973712        1.48762797153459        0.45595310981159
H            5.40039927855455        1.42930472677143       -0.59772546346838
H            5.67674400948715       -0.98951278437235       -0.11079077109789
H            4.23421302973537       -0.94927331532848        0.90391441219375
H            6.76928413759594        0.66584809202235        1.39463152483627
H            5.33529466226452        0.68160602844877        2.41906609247173
H            7.21321248934531       -0.75988352548522        3.26686447670228
H            7.02461896972378       -1.79661712625993        1.85405727903437
H            4.84836474303490       -1.24749815290782        3.91944422848114
H            4.72014734372167       -2.36448295605077        2.56029676119420
H            6.70167478097695       -2.62485657309928        4.86726695775535
H            5.24449765047595       -3.59311982653160        4.64222340748218
H            6.58162436764115       -3.73016727424239        3.49903544706696
H           -7.19795431892441        3.39979139166217        0.39535856922677
H           -6.86906738619948        2.97341854789317        2.08705386512360
H           -8.54222558265937        2.87787470756001        1.45663173564853
H           -3.58672571114584       -3.86596174086169        1.05878684688069
H           -1.28804881620447       -4.73326344767536        0.99633157895340
