105
 energy: -145.982404307487 gnorm: 0.000067885431 xtb: 6.7.1 (edcfbbe)
C           10.87108837155233       -3.37810508736435       -4.89755277507869
C            9.98692973994227       -2.96591907816170       -3.72705649201121
C           10.79198056598108       -2.29546456783772       -2.61657513761190
C            9.91420094167639       -1.87388254533159       -1.44042103936820
C           10.73184488328429       -1.19555377742200       -0.34356009355027
C            9.91617428963224       -0.85223593280843        0.90294339329222
C            8.85368103895587        0.21458702840568        0.65188317513259
C            8.20795271850515        0.68021279529522        1.96174322693867
N            7.21396665978063        1.69276890957453        1.73776168718887
C            7.46788967986223        3.03277612428753        1.57701061315702
C            8.67032312598379        3.72294265602005        1.65513796392928
C            8.64560359844935        5.09087707975758        1.46556699968890
C            7.45671368759122        5.76789747346322        1.20135190817227
C            6.25741306254200        5.08942247874267        1.11966722357407
C            6.25568509709574        3.71353567291387        1.30652324358664
C            5.22746171259206        2.71293495354017        1.29145569846362
C            3.85674516881211        2.76011784370158        1.08880222300721
C            3.12612607216776        1.57943592040116        1.14761964871561
N            1.74904445462392        1.66842154160674        0.94328960458727
C            0.77202169214532        0.74390859267128        1.03130691519737
N           -0.45656823616636        1.21726771908392        0.79717373175230
C           -1.44324876357147        0.32667406504755        0.89245975606153
N           -2.67325693852579        0.82641487534974        0.64863639295095
C           -3.93065040271688        0.22587972606696        0.67515458650132
C           -5.02786886763779        1.03047273465598        0.33216323570946
C           -6.31653563036414        0.53970385633598        0.33090405271156
C           -6.51604181037360       -0.78787060566671        0.68269426134238
C           -5.41535932564475       -1.60676425403362        1.02853650552731
C           -4.12366012971036       -1.10201119110161        1.02571178377016
C           -5.95628193134473       -2.90062712810389        1.33155520856917
C           -5.38910522369326       -4.10553392291614        1.72481726437587
C           -6.21810872965943       -5.18909421321624        1.93420848201570
C           -7.59607452510991       -5.08181355009771        1.75553219896153
C           -8.18357887643645       -3.89456654598687        1.36420212734638
C           -7.35743301997174       -2.79853754843519        1.15348537914473
N           -7.67918765573660       -1.51534609580933        0.78115492317625
C           -8.99191629186530       -1.05545786061614        0.41972246723273
C           -9.31632859750171       -1.37330415247055       -1.04580183647059
C          -10.69273902877626       -0.85016105970000       -1.47805127326438
C          -10.63662787960279        0.43397749159959       -2.30765114110226
C          -10.07813622185945        1.63690662857438       -1.55178688278254
C          -10.13451938414875        2.90574574393575       -2.40059950386990
C           -9.68268602324065        4.16057733026206       -1.65223552433883
C           -8.20408661552245        4.14524663873517       -1.28112110514497
N           -1.27000018981446       -0.96223462474878        1.19915640102493
C           -0.01062619595841       -1.31932417821507        1.39988377593912
O            0.25743416332677       -2.58506359022095        1.70144543210148
C           -0.85155795520808       -3.45880144037095        1.79153258390004
N            1.04628928577948       -0.52650937716498        1.33075482381528
C            3.76961636908632        0.36081513930268        1.39664398999551
C            5.13364936064031        0.30081790489526        1.59635213135863
C            5.86778241418615        1.47788633768969        1.55082046368995
H           11.63532835371089       -4.07969724302838       -4.56984641199483
H           11.36670181379099       -2.50919136716445       -5.32538850546810
H           10.27980775913244       -3.85392057575555       -5.67645881481350
H            9.21598968466591       -2.27694492676133       -4.07971820596604
H            9.48275827434361       -3.84767084305297       -3.32485767437011
H           11.56243490624976       -2.98577888323179       -2.26423394630504
H           11.29849500578013       -1.41565259546262       -3.02093823150689
H            9.14177153267525       -1.19264422830326       -1.80118494827194
H            9.41624523776161       -2.75451490623392       -1.02766437525320
H           11.18122212436524       -0.28264367787935       -0.74150386093146
H           11.54701548065634       -1.86254439087321       -0.05179746457767
H            9.43846679884202       -1.75767444149592        1.28418767004840
H           10.60007310611312       -0.49060419271602        1.67557818079152
H            9.30757123270574        1.07609622591615        0.15680730030793
H            8.07250488959571       -0.17479207675025       -0.00260136879342
H            7.73537873691672       -0.16680890168088        2.46561402612722
H            8.97480567830246        1.08491910109894        2.62998207220892
H            9.60102050102109        3.21388565869000        1.85660995797395
H            9.56893612740630        5.64898319322065        1.52165972013722
H            7.47993794005665        6.83814926646523        1.05853365060602
H            5.33651531453706        5.61456748351890        0.91436892228249
H            3.36524944824512        3.70216769878507        0.89205675685633
H            1.39491260313905        2.59153653084486        0.72941572191068
H           -2.65396052513134        1.81029865159943        0.41550767171470
H           -4.85565556588925        2.06277553799859        0.06117819884110
H           -7.13876503909966        1.18488322035162        0.06230901919847
H           -3.28173226754862       -1.71620970525143        1.28788277879217
H           -4.32099770102261       -4.18711062334059        1.86132455846296
H           -5.79858313133887       -6.13608590645363        2.23986904971629
H           -8.21870868581927       -5.94816316185875        1.92526524083563
H           -9.25280933376650       -3.83046679193366        1.22767228144712
H           -9.04501571473036        0.02034949010541        0.59803809735087
H           -9.72357338762599       -1.54151286571742        1.07241795554109
H           -9.27298553067615       -2.45742479818286       -1.16897368251911
H           -8.53812345158802       -0.94569211014760       -1.68091437093824
H          -11.31126624632749       -0.67974985558842       -0.59379521078052
H          -11.19217399193597       -1.61239952307322       -2.07922258767473
H          -11.64936233210792        0.66966865674918       -2.64474706083910
H          -10.02907614679422        0.25710339938890       -3.19846623234649
H          -10.65510741769205        1.79011105316425       -0.63605712325401
H           -9.04303419338263        1.43790372517459       -1.27622729156518
H          -11.16231849120180        3.05531220020869       -2.74129860913542
H           -9.51067060121059        2.77249743807271       -3.28780819199359
H           -9.87569320454831        5.02835589397405       -2.28747104484571
H          -10.28264068583765        4.27633134126883       -0.74643294361876
H           -7.99280975988429        3.37978350671160       -0.53915598449016
H           -7.59231089748768        3.95318250834479       -2.16012864226390
H           -7.91105495297485        5.10555066635859       -0.86261974079118
H           -0.43835030084276       -4.43768118311764        2.02633707489673
H           -1.39566228726315       -3.49326344357898        0.84459220894072
H           -1.53360578532097       -3.13654928513145        2.58222002787370
H            3.17155644361469       -0.53334960344928        1.43340967918123
H            5.60591793126068       -0.65171427500426        1.78232702421323
