  64
        -98.57625465
 C          6.4655430978       -3.6111613899       -1.3627254679
 C          5.1050862240       -3.3573037014       -1.5341363371
 C          4.5414718920       -2.1581911702       -1.1265777722
 C          5.3682083371       -1.2183888918       -0.5342208478
 C          6.7618558284       -1.4517581253       -0.3940227745
 C          7.3033481805       -2.6663761944       -0.8044821062
 C          7.3219933665       -0.2646484442        0.1715264368
 C          8.6102977360        0.0989485898        0.5519495980
 C          8.8073904805        1.3388318572        1.1263503758
 C          7.7405651820        2.2100211316        1.3435040346
 C          6.4496393452        1.8731123968        0.9668270450
 C          6.2478812552        0.6459398809        0.3577663147
 N          5.0706213086        0.0561073803       -0.0764850749
 C          3.8125636755        0.6248212541       -0.0451080565
 C          2.6996715105       -0.1170188677        0.4115982036
 C          1.4513314676        0.4324420339        0.4429253388
 C          1.2336993950        1.7573990519       -0.0101924397
 N         -0.0012365114        2.3457325812       -0.0204159761
 C         -1.2372964139        1.7593516085       -0.0290180703
 C         -2.3593744206        2.5145307320        0.3947448392
 C         -3.6083483590        1.9662893096        0.4214416027
 C         -3.8151392317        0.6258731347        0.0222746161
 N         -5.0712213813        0.0535868584        0.0690947172
 C         -6.2570864707        0.6420988655       -0.3427333737
 C         -6.4723325355        1.8715745662       -0.9426792942
 C         -7.7703473956        2.2067160524       -1.2955981391
 C         -8.8310995642        1.3316535839       -1.0643798239
 C         -8.6211274911        0.0898556199       -0.4986871527
 C         -7.3256592804       -0.2718970746       -0.1416990559
 C         -6.7530783354       -1.4597751778        0.4097542940
 C         -7.2847247328       -2.6765376083        0.8264481739
 C         -6.4353238875       -3.6209079325        1.3676028584
 C         -5.0726256716       -3.3646457731        1.5156084025
 C         -4.5188382197       -2.1630905424        1.1018668930
 C         -5.3578959742       -1.2233359602        0.5270739162
 C         -2.7070303832       -0.1115842353       -0.4524460117
 C         -1.4590902048        0.4384211491       -0.4915652186
 C          2.3592670768        2.5149158847       -0.4206457013
 C          3.6086425537        1.9673136350       -0.4389268478
 H          6.8682014178       -4.5597206610       -1.6860025951
 H          4.4795312716       -4.1049748929       -1.9976431704
 H          3.4922089792       -1.9629060579       -1.2870691436
 H          8.3595839036       -2.8581417191       -0.6916040381
 H          9.4342766802       -0.5828106060        0.4057922275
 H          9.8004532616        1.6377921139        1.4278577615
 H          7.9206605012        3.1620085333        1.8195566803
 H          5.6288277650        2.5448670125        1.1663189907
 H          2.8634269689       -1.1101370093        0.8012708764
 H          0.6292350362       -0.1169329951        0.8733099062
 H         -0.0003420750        3.3594309383       -0.0169912222
 H         -2.2062498879        3.5303351917        0.7307144321
 H         -4.4439718509        2.5354192576        0.7979331261
 H         -5.6568008117        2.5463424932       -1.1530857038
 H         -7.9609738345        3.1601349479       -1.7644215546
 H         -9.8297630714        1.6289124665       -1.3485078322
 H         -9.4407132659       -0.5950339076       -0.3420675839
 H         -8.3424696843       -2.8698567532        0.7325806044
 H         -6.8303142240       -4.5711455752        1.6955151267
 H         -4.4372736914       -4.1126509537        1.9651607337
 H         -3.4673045698       -1.9660726727        1.2442979937
 H         -2.8749172122       -1.1012362922       -0.8490577999
 H         -0.6411156763       -0.1067399223       -0.9348121696
 H          2.2091171512        3.5330222718       -0.7508919521
 H          4.4479233208        2.5396318346       -0.8023005909
  64
        -98.57620368
 C          8.7932777283       -1.7176599048        0.3419732702
 C          7.7371653194       -2.5984846185        0.1116751679
 C          6.4409693230       -2.1373745172       -0.0587192330
 C          6.2228462576       -0.7710300150       -0.0026747153
 C          7.2858446583        0.1294975130        0.2740159125
 C          8.5797809463       -0.3567812452        0.4345816905
 C          6.7101558187        1.4355698289        0.3483628948
 C          7.2363568558        2.7040718872        0.5738972747
 C          6.3857680606        3.7910365860        0.5380599232
 C          5.0276507104        3.6348619244        0.2632901314
 C          4.4793306315        2.3811105306        0.0420181662
 C          5.3189093382        1.2819690770        0.1103397040
 N          5.0374440828       -0.0590438304       -0.1020760731
 C          3.7853935327       -0.5843196823       -0.3545627505
 C          2.6656671478       -0.1599881447        0.3954898304
 C          1.4207994795       -0.6580752455        0.1451740506
 C          1.2143254426       -1.5979707476       -0.8950365859
 N         -0.0210731992       -2.1011168922       -1.1991881286
 C         -1.2499474183       -1.5619984471       -0.9315764823
 C         -1.4465825310       -0.1732342428       -0.7284322592
 C         -2.6817532978        0.3161733370       -0.4197873773
 C         -3.8013062580       -0.5403384287       -0.3176814439
 N         -5.0390486076       -0.0369228985        0.0298421872
 C         -5.2767023726        0.8821554898        1.0409132532
 C         -4.3958472263        1.4371101404        1.9539987532
 C         -4.9037222418        2.3140095651        2.8999205512
 C         -6.2624981410        2.6245779067        2.9409914206
 C         -7.1531833202        2.0488616850        2.0569750767
 C         -6.6677600374        1.1601150539        1.1022122295
 C         -7.2891832654        0.3714995290        0.0851575821
 C         -8.6049130527        0.2286296687       -0.3450114344
 C         -8.8665366510       -0.6048579380       -1.4140858926
 C         -7.8374975337       -1.2795417988       -2.0701217878
 C         -6.5201477599       -1.1585839546       -1.6556532474
 C         -6.2525673325       -0.3535192144       -0.5611011947
 C         -3.6221264331       -1.9150793862       -0.5962146742
 C         -2.3857949292       -2.4083951515       -0.8963411080
 C          2.3468958551       -2.0632921521       -1.6078255254
 C          3.5931389430       -1.5719475474       -1.3476955613
 H          9.7908684944       -2.1129364772        0.4640998452
 H          7.9300600137       -3.6597487566        0.0714410414
 H          5.6285717230       -2.8319598992       -0.2080614066
 H          9.3953507069        0.3210727671        0.6355662504
 H          8.2909779171        2.8303782895        0.7659632233
 H          6.7764423158        4.7828527523        0.7112947519
 H          4.3917163985        4.5057204496        0.2156272240
 H          3.4316930088        2.2751706211       -0.1947851325
 H          2.8210003202        0.5198475105        1.2192719986
 H          0.5910533682       -0.3867436036        0.7784436486
 H         -0.0267611121       -2.9950979267       -1.6767907433
 H         -0.6184965794        0.5006929799       -0.8813746870
 H         -2.8313954782        1.3796673527       -0.3123087324
 H         -3.3464954398        1.1849526641        1.9487532601
 H         -4.2350064445        2.7589505575        3.6209413639
 H         -6.6212610642        3.3167289872        3.6883199419
 H         -8.2077498944        2.2739611661        2.1056739191
 H         -9.4003223854        0.7674176159        0.1470436633
 H         -9.8817289965       -0.7286030758       -1.7609180519
 H         -8.0688499047       -1.9027411828       -2.9205747179
 H         -5.7302251053       -1.6635071900       -2.1904161185
 H         -4.4673332136       -2.5805018460       -0.5145708851
 H         -2.2530466304       -3.4659240097       -1.0759531379
 H          2.2054740880       -2.7960885215       -2.3896104125
 H          4.4383250112       -1.8953022762       -1.9350673097
  64
        -98.57608536
 C          8.8047186295       -1.1104711557       -1.5344290752
 C          7.7709643768       -1.9929800795       -1.8460945864
 C          6.4636621732       -1.7314120627       -1.4664114170
 C          6.2112260886       -0.5690516452       -0.7572687821
 C          7.2513405372        0.3564003892       -0.4742930884
 C          8.5570830388        0.0683574544       -0.8599275753
 C          6.6435400037        1.4708187077        0.1822481503
 C          7.1381459646        2.6613750390        0.7064382813
 C          6.2617907435        3.5257186308        1.3317343906
 C          4.9086578319        3.2135088939        1.4586460776
 C          4.3916394771        2.0368374121        0.9392889260
 C          5.2570468106        1.1804508680        0.2794032151
 N          5.0089696481       -0.0584103885       -0.2930699264
 C          3.7715035616       -0.6652916233       -0.3720388839
 C          3.6093999207       -2.0414381413       -0.0884304809
 C          2.3711944655       -2.6142493526       -0.1090501545
 C          1.2171588067       -1.8482735596       -0.4074558223
 N         -0.0151111978       -2.4419758116       -0.3617964271
 C         -1.2343792919       -1.8472101859       -0.1832707039
 C         -1.3774448712       -0.5725547674        0.4196568326
 C         -2.6079807298        0.0006227777        0.5506993058
 C         -3.7739095993       -0.6689413516        0.1168952892
 N         -5.0111245641       -0.0673886203        0.2408967188
 C         -5.2954348308        1.2533940528       -0.0703445317
 C         -4.4828364474        2.2194197334       -0.6396926580
 C         -5.0304179488        3.4686580061       -0.8860765206
 C         -6.3619491110        3.7467477689       -0.5792954860
 C         -7.1882678557        2.7792610830       -0.0431205675
 C         -6.6629455918        1.5151055795        0.2068376904
 C         -7.2207338556        0.2970773058        0.7053973235
 C         -8.4866750294       -0.0610077736        1.1586210655
 C         -8.6841197861       -1.3433533917        1.6304505016
 C         -7.6379435797       -2.2641231498        1.6738805563
 C         -6.3699842571       -1.9330646252        1.2217962560
 C         -6.1710734009       -0.6597543754        0.7152927593
 C         -3.6411135286       -1.9694804166       -0.4211341527
 C         -2.4095204705       -2.5396296898       -0.5660014003
 C          1.3946106010       -0.4919823110       -0.7798723025
 C          2.6318004497        0.0804778609       -0.7499566496
 H          9.8120997557       -1.3509735255       -1.8405667365
 H          7.9906356773       -2.8940138548       -2.3983370091
 H          5.6690583776       -2.4093987935       -1.7386130488
 H          9.3552770815        0.7610470495       -0.6401198510
 H          8.1888532539        2.8961707206        0.6285615978
 H          6.6278868489        4.4545656824        1.7436608100
 H          4.2518254884        3.8963776849        1.9757403938
 H          3.3476659048        1.7945536458        1.0664474306
 H          4.4712357142       -2.6217052866        0.2014815076
 H          2.2526795440       -3.6586859723        0.1424380024
 H         -0.0242436024       -3.4515121920       -0.4507581215
 H         -0.5066833466       -0.0866132553        0.8301455613
 H         -2.7119223771        0.9515115916        1.0505646631
 H         -3.4578091940        2.0081397387       -0.9035501761
 H         -4.4153351849        4.2375132189       -1.3285070726
 H         -6.7523784918        4.7335608107       -0.7793702862
 H         -8.2241005844        2.9917232323        0.1736106660
 H         -9.2927236138        0.6567426913        1.1465075348
 H         -9.6599798676       -1.6385855919        1.9867154887
 H         -7.8156440715       -3.2511483236        2.0730218044
 H         -5.5623472421       -2.6459343011        1.2866434779
 H         -4.5234169010       -2.4869764132       -0.7642046010
 H         -2.3154782608       -3.5219950862       -1.0068264589
 H          0.5462367819        0.0659351294       -1.1436885108
 H          2.7650779840        1.1003342387       -1.0769392661
  64
        -98.57541907
 C          8.0101700754       -1.4016280357       -2.8066959945
 C          6.7958486838       -1.0140059907       -3.3721590712
 C          5.7591639516       -0.5329742601       -2.5883065188
 C          5.9656838221       -0.4388744732       -1.2218127437
 C          7.1835478160       -0.8702128337       -0.6336595872
 C          8.2122941888       -1.3437608125       -1.4421546345
 C          7.0340800287       -0.7149773669        0.7797517138
 C          7.8773174429       -0.9462068646        1.8620976313
 C          7.4279068869       -0.6381629516        3.1306802251
 C          6.1630426991       -0.0870327352        3.3320744458
 C          5.3029078586        0.1458863390        2.2707048330
 C          5.7317684305       -0.1930316283        0.9979103352
 N          5.0949917812       -0.0325555150       -0.2229326481
 C          3.8181742392        0.4630228807       -0.4186088001
 C          2.7433175418        0.0456068265        0.3952086773
 C          1.4787392871        0.5211897611        0.1906091406
 C          1.2185210429        1.4584835315       -0.8378080260
 N         -0.0241386674        1.9767716991       -1.0842252613
 C         -1.2579669794        1.4767215536       -0.7695945827
 C         -2.3653458208        2.3617505019       -0.7321574313
 C         -3.6157830903        1.9138122119       -0.4240394283
 C         -3.8420198113        0.5472696989       -0.1359665734
 N         -5.1022403261        0.0898335724        0.1887803101
 C         -6.2890745595        0.4580795219       -0.4279744426
 C         -6.4979076789        1.2691478300       -1.5306359086
 C         -7.8001520128        1.4475382599       -1.9728584679
 C         -8.8712357109        0.8220355546       -1.3354774473
 C         -8.6689558239       -0.0198549000       -0.2600449893
 C         -7.3696019659       -0.2208204060        0.1972021083
 C         -6.8040575018       -1.0362062096        1.2248758813
 C         -7.3474830875       -1.9052821380        2.1669009327
 C         -6.5011558720       -2.5211170591        3.0673717623
 C         -5.1294774834       -2.2698784337        3.0560807343
 C         -4.5640776595       -1.4133384143        2.1232204060
 C         -5.4002834737       -0.8192665009        1.1932707661
 C         -2.7471151089       -0.3448594578       -0.2175003381
 C         -1.4972769497        0.0997823127       -0.5348988269
 C          2.3119890050        1.9235600051       -1.6099501685
 C          3.5684513216        1.4264041202       -1.4213035935
 H          8.7978276492       -1.7650336719       -3.4499823699
 H          6.6577293091       -1.0947492818       -4.4396470677
 H          4.8152789195       -0.2591644561       -3.0346858820
 H          9.1456263402       -1.6642716338       -1.0048326856
 H          8.8657501766       -1.3507574704        1.7059284970
 H          8.0683246595       -0.8111868279        3.9828684554
 H          5.8484949211        0.1688030955        4.3325233326
 H          4.3370229199        0.5971417600        2.4383613204
 H          2.9246201091       -0.6845911041        1.1685274611
 H          0.6767186563        0.2128862824        0.8413866924
 H         -0.0301546115        2.8602362937       -1.5817925583
 H         -2.1979769966        3.4125036722       -0.9224079380
 H         -4.4376113123        2.6081250493       -0.3446949361
 H         -5.6757223784        1.7350891505       -2.0518365335
 H         -7.9854735646        2.0760510315       -2.8303002594
 H         -9.8726914544        0.9896854314       -1.7033905345
 H         -9.4975634843       -0.5215726007        0.2161672927
 H         -8.4115986727       -2.0845004246        2.1926486937
 H         -6.9054782788       -3.1984986688        3.8048789438
 H         -4.4960583254       -2.7450716243        3.7895579314
 H         -3.5048951414       -1.2070512698        2.1415160322
 H         -2.9291166657       -1.4012772802       -0.0929549548
 H         -0.6926624470       -0.6044154783       -0.6754498377
 H          2.1354223255        2.6811268323       -2.3608347660
 H          4.3957587094        1.8017858659       -2.0038263249
  64
        -98.57530232
 C          6.1065487338       -3.8368457318       -0.7813896445
 C          4.7544058487       -3.5346250436       -0.9392217789
 C          4.2743853137       -2.2528364532       -0.7195068558
 C          5.1749758920       -1.2777194372       -0.3239132504
 C          6.5609098206       -1.5658089760       -0.2107611697
 C          7.0186640618       -2.8616258229       -0.4312346197
 C          7.2096457025       -0.3380078480        0.1253179797
 C          8.5355749965        0.0063168099        0.3707880878
 C          8.8283073594        1.3079448058        0.7253195273
 C          7.8195094745        2.2608291443        0.8611091594
 C          6.4924613034        1.9428706201        0.6160381589
 C          6.1936231056        0.6504577787        0.2183174433
 N          4.9653887281        0.0683118263       -0.0602140762
 C          3.7381550899        0.6998836678       -0.0428665015
 C          2.6168793775        0.0669066484        0.5399203207
 C          1.3957921281        0.6732851031        0.5519394635
 C          1.2203131192        1.9584399765       -0.0176637650
 N         -0.0010361109        2.5791674700       -0.0137122184
 C         -1.2223628717        1.9581405633       -0.0008446987
 C         -2.3527941037        2.6149858035        0.5395052987
 C         -3.5711091676        1.9992625939        0.5747527022
 C         -3.7398922890        0.6976149915        0.0478469563
 N         -4.9663401556        0.0656828427        0.0724859060
 C         -6.1966452299        0.6445975635       -0.2061123387
 C         -6.5016617115        1.9377684279       -0.5964323923
 C         -7.8295355631        2.2501212827       -0.8450167431
 C         -8.8337796149        1.2908062862       -0.7213496982
 C         -8.5352345077       -0.0110657121       -0.3729976087
 C         -7.2086722757       -0.3490044284       -0.1218589871
 C         -6.5562051033       -1.5757514506        0.2097264203
 C         -7.0105031360       -2.8740454651        0.4228982538
 C         -6.0964440676       -3.8478049197        0.7718071271
 C         -4.7460614852       -3.5411647692        0.9366340297
 C         -4.2698254666       -2.2564141432        0.7253829363
 C         -5.1717992842       -1.2825872491        0.3297577256
 C         -2.6200961781        0.0606834169       -0.5346278554
 C         -1.3994601670        0.6673111283       -0.5570507686
 C          2.3524566303        2.6113814014       -0.5587137667
 C          3.5717322596        1.9967549661       -0.5813227370
 H          6.4425188033       -4.8491192309       -0.9509317229
 H          4.0683805117       -4.3107733865       -1.2427034761
 H          3.2304615627       -2.0274358107       -0.8743196465
 H          8.0682947212       -3.0928290180       -0.3320371407
 H          9.3148289219       -0.7360960190        0.2892658789
 H          9.8519325360        1.5942407761        0.9163583772
 H          8.0739667185        3.2635635025        1.1691557437
 H          5.7202997983        2.6835182688        0.7560282472
 H          2.7541557706       -0.8815868650        1.0354366213
 H          0.5602497374        0.2084107706        1.0520492220
 H         -0.0005773985        3.5921379277       -0.0230760093
 H         -2.2303287966        3.6013552908        0.9634905664
 H         -4.4077865636        2.4833282117        1.0534330188
 H         -5.7342885512        2.6845609143       -0.7290668337
 H         -8.0879108394        3.2537663851       -1.1467057643
 H         -9.8577860519        1.5720598636       -0.9179733112
 H         -9.3100767712       -0.7591028724       -0.3012958526
 H         -8.0591401914       -3.1078736736        0.3194334581
 H         -6.4294440051       -4.8620836531        0.9351738701
 H         -4.0582638205       -4.3160193553        1.2394357255
 H         -3.2274185798       -2.0287827393        0.8871002861
 H         -2.7589370954       -0.8915020994       -1.0224597261
 H         -0.5657513015        0.1979511889       -1.0560953322
 H          2.2315878772        3.5937821570       -0.9923163220
 H          4.4117460309        2.4779969426       -1.0571303050
  64
        -98.57523284
 C          7.8651268662       -1.7027606655       -2.7221781554
 C          6.6655559658       -1.2935039009       -3.3032291269
 C          5.6636161033       -0.7078268444       -2.5462772997
 C          5.8903271847       -0.5334832090       -1.1910183614
 C          7.0935787521       -0.9795651915       -0.5848261257
 C          8.0874786564       -1.5590176610       -1.3670799493
 C          6.9679802223       -0.7192849341        0.8159681658
 C          7.8127119283       -0.9088683476        1.9050733323
 C          7.3903390646       -0.4930281220        3.1521384013
 C          6.1508285314        0.1216710553        3.3248681821
 C          5.2890085248        0.3144231096        2.2570960358
 C          5.6918163629       -0.1280766121        1.0077666528
 N          5.0500692357       -0.0227165739       -0.2154587641
 C          3.7865546102        0.5015605162       -0.4308192579
 C          2.7054990763        0.1471337402        0.4027651333
 C          1.4526626797        0.6436240953        0.1769982560
 C          1.2166931652        1.5469450525       -0.8867211512
 N         -0.0189753085        2.0806030432       -1.1410101779
 C         -1.2477763003        1.5716290157       -0.8185567693
 C         -2.3600485915        2.4448090668       -0.7233592906
 C         -3.5982108950        1.9740962605       -0.3987186209
 C         -3.8075946219        0.5947061803       -0.1595325353
 N         -5.0527490699        0.1107629527        0.1803696955
 C         -6.2638991410        0.4977797708       -0.3759848453
 C         -6.5207583627        1.3728119813       -1.4176263381
 C         -7.8394860169        1.5587038543       -1.8055855694
 C         -8.8804812171        0.8773951191       -1.1756342456
 C         -8.6310700746       -0.0282150060       -0.1639505635
 C         -7.3145592251       -0.2369652015        0.2379183706
 C         -6.7061458481       -1.1070141047        1.1926370918
 C         -7.2078734960       -2.0464093898        2.0894905633
 C         -6.3260766998       -2.7049195711        2.9231371747
 C         -4.9598251197       -2.4265921998        2.8921287721
 C         -4.4359668997       -1.4997945444        2.0029881320
 C         -5.3071924570       -0.8640015414        1.1349670506
 C         -2.7072973959       -0.2841178381       -0.3031892902
 C         -1.4689801087        0.1846942292       -0.6271776858
 C          2.3173945179        1.9504061415       -1.6805407650
 C          3.5604689987        1.4247769712       -1.4747623167
 H          8.6253493470       -2.1505894851       -3.3449624111
 H          6.5112175526       -1.4404132533       -4.3614880027
 H          4.7296297299       -0.4154463737       -3.0017470651
 H          9.0087417197       -1.8959579899       -0.9166666335
 H          8.7818694597       -1.3646805176        1.7704461649
 H          8.0329222643       -0.6313944111        4.0090067736
 H          5.8580560210        0.4590135373        4.3076133649
 H          4.3423537722        0.8132427772        2.3988218283
 H          2.8721991064       -0.5509502503        1.2085219945
 H          0.6401558140        0.3796314869        0.8347940757
 H         -0.0226179067        2.9626609277       -1.6405433480
 H         -2.2053692377        3.5033355393       -0.8770791731
 H         -4.4214575198        2.6586402714       -0.2672470163
 H         -5.7238554647        1.8831973434       -1.9362181629
 H         -8.0614807870        2.2384841342       -2.6139721167
 H         -9.8957942588        1.0528468082       -1.4992954298
 H         -9.4362072259       -0.5727435538        0.3053408498
 H         -8.2675164537       -2.2473823001        2.1315753841
 H         -6.6974335112       -3.4384066089        3.6235136276
 H         -4.2976131004       -2.9365572510        3.5749447806
 H         -3.3808029958       -1.2735393063        2.0097497496
 H         -2.8782773286       -1.3463558036       -0.2207641320
 H         -0.6574602434       -0.5031320079       -0.8059313593
 H          2.1582920220        2.6797554401       -2.4624870140
 H          4.3952886484        1.7463564664       -2.0784929330
  64
        -98.57519078
 C          7.0605363465       -3.5268886710       -1.1830084111
 C          5.7112412087       -3.4170084979       -1.5172012705
 C          4.9840148887       -2.2782532443       -1.2068691960
 C          5.6349421587       -1.2508751435       -0.5447050597
 C          7.0177923425       -1.3399968100       -0.2330842745
 C          7.7253727738       -2.4951486589       -0.5507590149
 C          7.3839181495       -0.0991917228        0.3749633691
 C          8.5722837682        0.3948544991        0.9048252246
 C          8.5707567933        1.6494132392        1.4813745158
 C          7.4024931544        2.4067474251        1.5548321893
 C          6.2090340375        1.9390429410        1.0272659578
 C          6.2097214584        0.6975424875        0.4135114992
 N          5.1592075143       -0.0097087930       -0.1530406593
 C          3.8649168628        0.4564790709       -0.2832727393
 C          2.7567481265       -0.3499988993        0.0589997349
 C          1.4839218087        0.1444987421        0.0138274076
 C          1.2417045674        1.4770870330       -0.3966080368
 N          0.0063181148        2.0623897545       -0.3812152718
 C         -1.2438225055        1.5120504135       -0.2933045944
 C         -2.2866439726        2.3037802475        0.2519253136
 C         -3.5531041410        1.8161191747        0.3715655333
 C         -3.8699628519        0.5095401027       -0.0693224891
 N         -5.1567973309        0.0263311604        0.0503584064
 C         -6.3156808966        0.7590598405       -0.1656966117
 C         -6.4728221108        2.0410361656       -0.6662190247
 C         -7.7602935312        2.5359699534       -0.8042227972
 C         -8.8714224855        1.7647997255       -0.4639109805
 C         -8.7271622202        0.4685616757       -0.0120291485
 C         -7.4440020838       -0.0527439376        0.1268832670
 C         -6.9399607557       -1.3319103022        0.5136623834
 C         -7.5502417371       -2.5185490330        0.9091145952
 C         -6.7530968079       -3.5896502056        1.2594497282
 C         -5.3625506411       -3.4873559610        1.2424037532
 C         -4.7320437592       -2.3167340664        0.8485726650
 C         -5.5224463005       -1.2488841668        0.4584407081
 C         -2.8415563265       -0.2650174318       -0.6554551030
 C         -1.5691329127        0.2182793289       -0.7675075803
 C          2.3543805598        2.2748545218       -0.7650904749
 C          3.6242609181        1.7819493737       -0.7090418214
 H          7.5934700070       -4.4314412073       -1.4362311233
 H          5.2242035900       -4.2313473611       -2.0317516112
 H          3.9463612300       -2.1956722142       -1.4920848543
 H          8.7747698707       -2.5744775587       -0.3107057267
 H          9.4728912961       -0.1990513745        0.8703751929
 H          9.4837404460        2.0493298742        1.8971187059
 H          7.4243680517        3.3723353357        2.0368654210
 H          5.3055730364        2.5227224986        1.1166685986
 H          2.9338830752       -1.3473476077        0.4309736544
 H          0.6602272044       -0.4581587359        0.3611819570
 H          0.0230468448        3.0760237374       -0.3610333512
 H         -2.0513077498        3.2947196128        0.6138673149
 H         -4.3172393273        2.4048121469        0.8541980626
 H         -5.6251624295        2.6384716124       -0.9648863745
 H         -7.9038852357        3.5343107334       -1.1885899585
 H         -9.8590026661        2.1874957139       -0.5748777617
 H         -9.5892487061       -0.1362218471        0.2247952633
 H         -8.6265927584       -2.5911573912        0.9453102776
 H         -7.2090216486       -4.5194760106        1.5659167209
 H         -4.7642501438       -4.3332400995        1.5450842277
 H         -3.6555405125       -2.2456567455        0.8676278772
 H         -3.0909099463       -1.2265117316       -1.0768841498
 H         -0.8157868221       -0.3581629887       -1.2810318750
 H          2.1797845689        3.2850585950       -1.1077409596
 H          4.4585473620        2.3877242058       -1.0274812798
  64
        -98.57469868
 C          5.6439461240       -3.6925634163       -1.3238947792
 C          4.3079073736       -3.3204834765       -1.1790761385
 C          3.9598347326       -2.0639389537       -0.7078800650
 C          4.9779848172       -1.1874733762       -0.3723875840
 C          6.3404268085       -1.5436701344       -0.5557749401
 C          6.6654784386       -2.8129752943       -1.0260829519
 C          7.1159043607       -0.3971795863       -0.2017938734
 C          8.4830251682       -0.1395957116       -0.1677765021
 C          8.9147048197        1.0946254563        0.2749358442
 C          8.0082337487        2.0640040372        0.7042135533
 C          6.6416738412        1.8333973366        0.6733662876
 C          6.1973038494        0.6132342536        0.1921111083
 N          4.9058916265        0.1230138602        0.0803605072
 C          3.7342541202        0.8113765409        0.3155999736
 C          2.6570023267        0.1791614306        0.9799354291
 C          1.4471501878        0.7946091646        1.0949100107
 C          1.2355712423        2.0809145879        0.5342778233
 N         -0.0077649604        2.6552302018        0.4982191671
 C         -1.2043153976        1.9990762791        0.3936485714
 C         -2.4112435128        2.6749303739        0.6903582585
 C         -3.6163245576        2.0402358501        0.5827731806
 C         -3.6840317107        0.6879109110        0.1805046811
 N         -4.8946207985        0.0290264234        0.0729904793
 C         -6.0403123748        0.5124163970       -0.5375656817
 C         -6.2463790670        1.7096117170       -1.2021765425
 C         -7.4891434299        1.9300914845       -1.7749849199
 C         -8.5024700303        0.9760994226       -1.6917930134
 C         -8.2952556715       -0.2327111385       -1.0571799372
 C         -7.0527470236       -0.4813621524       -0.4824532581
 C         -6.4847345814       -1.6103384958        0.1873151930
 C         -6.9759877359       -2.8619828706        0.5456017725
 C         -6.1480425277       -3.7276464885        1.2326511201
 C         -4.8491680095       -3.3595873080        1.5815813565
 C         -4.3352993901       -2.1213065662        1.2306292876
 C         -5.1488342165       -1.2594759308        0.5139013226
 C         -2.4844831900        0.0213696191       -0.1469575352
 C         -1.2821784451        0.6587182086       -0.0603375650
 C          2.3528606034        2.7674946589       -0.0014226833
 C          3.5637474741        2.1494107576       -0.1161013179
 H          5.8775392982       -4.6816471349       -1.6893099244
 H          3.5291924013       -4.0193090738       -1.4445135924
 H          2.9218064077       -1.7798636654       -0.6287653634
 H          7.6983819937       -3.0962990599       -1.1597612281
 H          9.1875263810       -0.8964728959       -0.4775668041
 H          9.9719648021        1.3127086890        0.3058789819
 H          8.3766776214        3.0090276548        1.0732872428
 H          5.9529650366        2.5809636535        1.0362005634
 H          2.8252575690       -0.7819326238        1.4413208285
 H          0.6475170369        0.3334660080        1.6538583064
 H         -0.0415102065        3.6671024975        0.4573630572
 H         -2.3669484607        3.7014982624        1.0253236396
 H         -4.5276918097        2.5535869184        0.8479235055
 H         -5.4604885107        2.4438099598       -1.2940074836
 H         -7.6721250621        2.8545751740       -2.3013528293
 H         -9.4593378453        1.1842574263       -2.1471781877
 H         -9.0744610634       -0.9785093094       -1.0152218091
 H         -7.9876671389       -3.1431007040        0.2953060192
 H         -6.5126496807       -4.7030841253        1.5189594052
 H         -4.2334224610       -4.0487468812        2.1394220576
 H         -3.3361179675       -1.8371199800        1.5240442569
 H         -2.5382103530       -0.9843541878       -0.5348422768
 H         -0.3828541669        0.1670662598       -0.3950713942
 H          2.2182184861        3.7727969114       -0.3742789560
 H          4.3846783423        2.6524005222       -0.6020709217
  64
        -98.57378333
 C          8.7408886161       -1.2206318575       -0.6321510176
 C          7.8481458717       -1.7714563133       -1.5508876722
 C          6.4966958651       -1.4656054020       -1.5126771961
 C          6.0553470840       -0.5872171057       -0.5374572554
 C          6.9525437540       -0.0493864955        0.4242793361
 C          8.3053883024       -0.3674937620        0.3620181725
 C          6.1714946892        0.7467443083        1.3186290170
 C          6.4779755681        1.5224857569        2.4329183361
 C          5.4619634697        2.2184741898        3.0571324014
 C          4.1538206042        2.1698936394        2.5767490464
 C          3.8232496119        1.3987021864        1.4740023473
 C          4.8292598463        0.6664824563        0.8654977559
 N          4.7721726974       -0.1480590964       -0.2561813804
 C          3.6042864601       -0.4686679332       -0.9196820464
 C          2.4489742484       -0.7904622113       -0.1727621509
 C          1.2508980941       -0.9879092634       -0.7876967492
 C          1.1298399442       -0.8531568227       -2.1957700727
 N         -0.0998555476       -0.9117714845       -2.7975925671
 C         -1.2779792637       -0.5809221985       -2.1807186977
 C         -1.2966636855        0.3451770648       -1.1048592708
 C         -2.4428370793        0.5783706048       -0.4080090750
 C         -3.6460637170       -0.0779646804       -0.7502054501
 N         -4.7663635525        0.0908646801        0.0388835873
 C         -4.7594246564        0.0813077786        1.4262905603
 C         -3.7160661961       -0.1716395562        2.3014177503
 C         -3.9859335467       -0.1545338155        3.6606157401
 C         -5.2710698127        0.0996385562        4.1382441452
 C         -6.3242904245        0.3158410734        3.2721905835
 C         -6.0791289104        0.2964046495        1.9022013997
 C         -6.9123761908        0.4356934905        0.7491363100
 C         -8.2722507770        0.6721701192        0.5748772965
 C         -8.7643595896        0.7977578893       -0.7088555099
 C         -7.9206229354        0.7104417851       -1.8157114227
 C         -6.5638888916        0.4681223717       -1.6680602730
 C         -6.0673774313        0.3057149382       -0.3856277419
 C         -3.6569787804       -0.9071132270       -1.8967706256
 C         -2.5063408573       -1.1478885083       -2.5934213751
 C          2.3096514588       -0.6563437894       -2.9507476031
 C          3.5132199967       -0.4661151599       -2.3315126274
 H          9.7876064949       -1.4788594852       -0.6954229490
 H          8.2145971228       -2.4544091329       -2.3021572323
 H          5.8125793156       -1.9198169226       -2.2129571908
 H          8.9946828403        0.0425518141        1.0844465309
 H          7.4932682323        1.5809102672        2.7944444932
 H          5.6810831247        2.8243402389        3.9238531309
 H          3.3847196310        2.7468931321        3.0674998358
 H          2.8123389792        1.3886446310        1.0961017167
 H          2.5437176922       -0.9281320746        0.8935733955
 H          0.3854237967       -1.2917721465       -0.2196890109
 H         -0.1411664927       -1.2190843072       -3.7617185536
 H         -0.3958746730        0.8939244878       -0.8779461718
 H         -2.4589275817        1.3112833995        0.3841066689
 H         -2.7226282024       -0.3951282743        1.9438883270
 H         -3.1868648529       -0.3472346048        4.3603523950
 H         -5.4425796565        0.1118957684        5.2044392958
 H         -7.3220479477        0.4901651409        3.6450937445
 H         -8.9233336234        0.7623359663        1.4311138945
 H         -9.8173489128        0.9813608120       -0.8631024973
 H         -8.3294941177        0.8406826766       -2.8061413243
 H         -5.9172219048        0.4301881893       -2.5312836718
 H         -4.5746025803       -1.3986694157       -2.1796275399
 H         -2.5159587649       -1.8148672165       -3.4435283870
 H          2.2400409274       -0.6100598902       -4.0281140807
 H          4.3942313378       -0.2483373380       -2.9146804901
