  140
       -177.44616771
 C          6.6947206830        4.2988300000       -0.3753993877
 C          6.2305593684        3.6117421014       -1.6677284905
 C          5.5768298818        4.6700729146       -2.5600636588
 C          7.4420959212        3.0364676825       -2.4152878245
 C          5.2820051968        2.4783671123       -1.3148129133
 C          3.9676529161        2.4158282632       -1.7643426490
 C          3.1346209396        1.3709189688       -1.4182327237
 C          3.5862248100        0.3402190065       -0.5955435826
 N          2.7142140599       -0.6779890013       -0.2172973907
 C          3.1757282141       -1.9605502606        0.0665524486
 C          2.5281569855       -2.7372972181        1.0257062441
 C          2.9663898227       -4.0147855798        1.3119071781
 C          4.0639210328       -4.5699631726        0.6632042207
 C          4.5841575051       -5.9679150073        0.9540300562
 C          3.7825379734       -6.6796417192        2.0471030716
 C          6.0448270894       -5.8734616598        1.4179079115
 C          4.4991681925       -6.8099631636       -0.3270622823
 C          4.6985897420       -3.7872678813       -0.3009058046
 C          4.2696099509       -2.5134653383       -0.6025841424
 C          1.3500387607       -0.3877612995       -0.0818271369
 C          0.3905452861       -1.1518911595       -0.8094392705
 C          0.7521847212       -2.1638911255       -1.7020717664
 C         -0.1902450498       -2.8620574312       -2.4471757895
 C         -1.5334796443       -2.5372438932       -2.3762094998
 C         -2.6201451240       -3.2607436825       -3.1517962376
 C         -2.0648873650       -4.3929163668       -4.0200172472
 C         -3.3438970466       -2.2645961289       -4.0686906616
 C         -3.6206008729       -3.8644908434       -2.1544912080
 C         -1.8989026277       -1.4850457113       -1.5322799814
 C         -0.9901003598       -0.8107849132       -0.7175920367
 C         -1.3925183301        0.2697861866        0.1298701693
 N         -2.7470012919        0.6144356508        0.2136450977
 C         -3.6896676369       -0.3619049236        0.5272767330
 C         -3.3404056128       -1.4319539483        1.3497105204
 C         -4.2509234851       -2.4298462134        1.6345381545
 C         -5.5431206673       -2.4054022028        1.1207533873
 C         -6.5739613937       -3.4854602075        1.4034117133
 C         -6.0361596056       -4.5875726112        2.3196673398
 C         -7.7937647611       -2.8488956518        2.0849825269
 C         -6.9984660404       -4.1327810122        0.0772928676
 C         -5.8832407213       -1.3284614033        0.3024631001
 C         -4.9843345093       -0.3279746043        0.0040036845
 C         -3.1280671823        1.9327874192       -0.0278471851
 C         -4.2118335287        2.5179382144        0.6259472623
 C         -4.5461521334        3.8371441188        0.3919039093
 C         -3.8172234372        4.6286629021       -0.4892270093
 C         -4.1401618945        6.0894880171       -0.7555365081
 C         -4.4335918532        6.2767300052       -2.2509198911
 C         -5.3573256035        6.5787009550        0.0340773306
 C         -2.9318384947        6.9465050261       -0.3518119245
 C         -2.7366416766        4.0322985493       -1.1377316034
 C         -2.3951780456        2.7159412541       -0.9207735114
 C         -0.4343765900        1.0097584669        0.8858411792
 C         -0.7962392005        1.9934615183        1.8095817615
 C          0.1487848830        2.6955744413        2.5472269764
 C          1.4972083883        2.4042338995        2.4360377193
 C          2.5876160964        3.1477743961        3.1869079461
 C          2.0314373302        4.2709338844        4.0661499396
 C          3.3495013115        2.1654664092        4.0874991152
 C          3.5535179791        3.7689320377        2.1663229886
 C          1.8628366021        1.3664686717        1.5753501992
 C          0.9472655084        0.6847285120        0.7744429436
 C          4.9045807791        0.3933314583       -0.1370330844
 C          5.7259949079        1.4389635047       -0.4976617833
 H          7.2224084410        3.6068979247        0.2750702607
 H          5.8383022593        4.6920678126        0.1680275633
 H          7.3650402639        5.1231830265       -0.6098072025
 H          6.2965692635        5.4573831358       -2.7754285064
 H          5.2559502857        4.2409221979       -3.5064650988
 H          4.7212608472        5.1231978485       -2.0648175496
 H          8.1264837221        3.8356757529       -2.6922991144
 H          7.1179327167        2.5297521567       -3.3221229766
 H          7.9839381319        2.3222174287       -1.8014175501
 H          3.5690224593        3.1868317393       -2.4028882511
 H          2.1193392631        1.3423835055       -1.7853651101
 H          1.6795564449       -2.3238802741        1.5507424221
 H          2.4343173313       -4.5723329347        2.0651288362
 H          2.7423401929       -6.8002862644        1.7537503856
 H          4.2007228836       -7.6699201381        2.2167621593
 H          3.8275839226       -6.1309086146        2.9850468765
 H          6.4303545279       -6.8646439178        1.6475440375
 H          6.1152667433       -5.2595665798        2.3135916888
 H          6.6767718847       -5.4322943253        0.6521392195
 H          4.8505487492       -7.8217161324       -0.1353119987
 H          3.4692573659       -6.8613076966       -0.6742073759
 H          5.1053420600       -6.3842527592       -1.1218896641
 H          5.5458049681       -4.1796057088       -0.8432436428
 H          4.7676659346       -1.9441743214       -1.3742123449
 H          1.7921017838       -2.4201052584       -1.8292894155
 H          0.1618620610       -3.6531250480       -3.0887704386
 H         -1.3678338613       -4.0097891756       -4.7617922098
 H         -2.8816294907       -4.8831547077       -4.5466372527
 H         -1.5604665199       -5.1395497255       -3.4109815586
 H         -2.6368404864       -1.8030025455       -4.7551087646
 H         -3.8267864641       -1.4780434761       -3.4954014693
 H         -4.1068518809       -2.7774849232       -4.6510861808
 H         -3.1132366525       -4.5643579765       -1.4931226332
 H         -4.4055597061       -4.3978188791       -2.6877792792
 H         -4.0832816304       -3.0953785726       -1.5415035026
 H         -2.9309479124       -1.1793860656       -1.5130016095
 H         -2.3440406348       -1.4714482594        1.7645641078
 H         -3.9314249171       -3.2346269154        2.2758989126
 H         -5.1817058523       -5.0872216695        1.8692907891
 H         -5.7456489131       -4.1853045463        3.2874698930
 H         -6.8122874013       -5.3323467839        2.4846377944
 H         -8.2596640448       -2.1024416873        1.4476454925
 H         -8.5355356316       -3.6112097411        2.3141060311
 H         -7.4962676402       -2.3665612985        3.0139184951
 H         -7.4350051063       -3.4028889488       -0.5988000582
 H         -6.1368661029       -4.5800752081       -0.4135369986
 H         -7.7362443080       -4.9113681884        0.2598977548
 H         -6.8710976130       -1.2682316466       -0.1292101858
 H         -5.2724526919        0.4754719015       -0.6587944772
 H         -4.7794275834        1.9403494311        1.3414484648
 H         -5.3877314685        4.2443842013        0.9281953421
 H         -5.2751674295        5.6548610641       -2.5493055140
 H         -3.5763898514        6.0046478381       -2.8603083960
 H         -4.6819457037        7.3158155180       -2.4570552627
 H         -6.2481046853        6.0130106658       -0.2293360677
 H         -5.5433942075        7.6253702629       -0.1985323004
 H         -5.1871414261        6.4986633153        1.1052620064
 H         -2.0493019904        6.6824180432       -0.9277259832
 H         -3.1460231570        8.0002315518       -0.5183845779
 H         -2.7050228955        6.8019747889        0.7025337943
 H         -2.1428492450        4.6034961799       -1.8352519026
 H         -1.5573088393        2.2763141420       -1.4414997048
 H         -1.8376511220        2.2260484943        1.9660023110
 H         -0.2042869269        3.4665205696        3.2123706661
 H          1.3643738909        3.8757422699        4.8288742079
 H          2.8512930881        4.7818676521        4.5676789083
 H          1.4932597868        5.0029145609        3.4682940534
 H          2.6670271631        1.6956510330        4.7929427348
 H          4.1195568927        2.6911269039        4.6487846074
 H          3.8284572180        1.3841199457        3.5038725832
 H          4.3370197933        4.3227112348        2.6804854567
 H          4.0213481951        3.0082631480        1.5467525557
 H          3.0164177970        4.4537062364        1.5126779770
 H          2.8993163269        1.0784110225        1.5293844434
 H          5.2728083212       -0.3769105722        0.5255644249
 H          6.7360841652        1.4464214470       -0.1161352830
