140
 energy: -177.504807334135 gnorm: 0.000068373229 xtb: 6.7.1 (edcfbbe)
C            7.09732608673825       -4.36522874143960       -1.30475620268575
C            5.80515461478928       -4.08679300979678       -2.08530381162946
C            6.14671443804898       -3.55929981034892       -3.48658088916599
C            5.05136756392591       -5.41001338811380       -2.24346451987706
C            4.99085927655308       -3.03377168335416       -1.35143967405571
C            3.68664739946915       -3.24254572930540       -0.91978777568654
C            2.96879049252550       -2.24994925665001       -0.28151143549957
C            3.52989283902682       -0.99525268649346       -0.05623579012139
N            2.76258185078448        0.01725787721274        0.51851080734462
C            3.32843141097563        1.04344405368884        1.27228428115931
C            2.75745949527380        2.31353079135032        1.27046020168666
C            3.30311202363040        3.33536757406574        2.02322246338068
C            4.43827325869320        3.14040807514727        2.80045777393842
C            5.07978218448553        4.24111055263789        3.62990747136319
C            4.34676493492148        5.57912591867844        3.50121525619249
C            6.52763923447666        4.44345368552766        3.16065545240841
C            5.06622754710092        3.82882007800400        5.10868878677326
C            4.99473295913860        1.86264242093282        2.80383706223813
C            4.45609906446333        0.83078563414203        2.06570436315643
C            1.37460495399149        0.03944332051013        0.26113146579339
C            0.46702510365496        0.00205095463225        1.33243368082432
C            0.88290916144716       -0.11603237386681        2.68199877528336
C           -0.01541334030465       -0.15824233536080        3.70171500586068
C           -1.40664773301970       -0.03357749912270        3.46830953082105
C           -2.36515750376904       -0.08132522818549        4.64528828638967
C           -3.82776663126722        0.08109072327618        4.22130040007994
C           -2.02052771886118        1.04089844457266        5.63355971305015
C           -2.21950378101636       -1.44797469561731        5.33031943980135
C           -1.82718742005900        0.08839759008248        2.17571018892223
C           -0.93481400727425        0.04906894112358        1.07515737920895
C           -1.39919914499213        0.02378463031212       -0.25256188742445
N           -2.78635640276558       -0.01032643942113       -0.51236908014232
C           -3.35558125984502        1.00955911985097       -1.27329801124486
C           -2.79845046628366        2.28563788139683       -1.26562211832008
C           -3.34640383741826        3.30125842696861       -2.02517360182631
C           -4.47025092712884        3.09359932497886       -2.81539349730252
C           -5.11387432571901        4.18684348457997       -3.65301040120174
C           -5.07738491177598        3.77431576359077       -5.13133940950241
C           -6.56958471514744        4.37299194948314       -3.20171107790615
C           -4.39760702812054        5.53305268295693       -3.51575495762704
C           -5.01273448758511        1.80984493329484       -2.82457065576941
C           -4.47159864237546        0.78430233298037       -2.07951452508204
C           -3.55057165413938       -1.02334387650999        0.06485123328739
C           -2.97714629559549       -2.27042080341933        0.31336519712040
C           -3.69509499987118       -3.25648321285888        0.95434117931091
C           -5.01177224226166       -3.05900129026241        1.36508359704217
C           -5.74687053972134       -4.17123085306161        2.09517594025573
C           -7.18784867176545       -3.79336907975377        2.44874736685755
C           -5.78668868627792       -5.42247504521466        1.20670486666218
C           -4.99962759008456       -4.48277951909083        3.40006367201757
C           -5.58118150225126       -1.82041986981657        1.09384911479654
C           -4.87036237664223       -0.81801188240727        0.46219903916837
C           -0.49088947503236       -0.00239025906996       -1.32395792238536
C           -0.90377633076112       -0.12586633354400       -2.67400963945390
C           -0.00424535512099       -0.15352807060721       -3.69327687717617
C            1.38479833825870       -0.00745021063751       -3.45922159746003
C            2.34521040685879       -0.03732340509947       -4.63530129551879
C            3.80318691923509        0.16257833332941       -4.21139059742480
C            2.23230366798667       -1.41080756533059       -5.31271896029755
C            1.97516094147255        1.07080058240923       -5.63019804009785
C            1.80273130452632        0.11559004970572       -2.16594491231658
C            0.91010439524027        0.06142981304542       -1.06634151204714
C            4.84304142559083       -0.77824873461184       -0.47544258030484
C            5.54917965069147       -1.78083790220381       -1.10475381917995
H            7.68182871764432       -5.13292369149918       -1.80774486885201
H            6.86152447070262       -4.71300325457270       -0.30101539269804
H            7.71081162481815       -3.47260840287227       -1.22053096898481
H            6.72210094398983       -4.30031309249637       -4.03770925717975
H            5.23449486434465       -3.34837268015912       -4.04130813309331
H            6.73104674831974       -2.64471629967090       -3.43294497602223
H            5.68198644689835       -6.12665195319033       -2.76608225095485
H            4.14244993481134       -5.27640045228051       -2.82561404604444
H            4.79498365916638       -5.83162605319618       -1.27421826625809
H            3.20197946605560       -4.19271151597882       -1.07463498288030
H            1.95497289800085       -2.44118146998160        0.03888263349573
H            1.87923688952634        2.49846573146433        0.66895212696932
H            2.82359941365772        4.29978072991928        1.98303989839494
H            3.31980950648129        5.49761377162845        3.84972478622307
H            4.84968308090453        6.32840728731733        4.10956672117850
H            4.34717275202593        5.92755588165698        2.47093204264645
H            6.54604727590219        4.71619797222508        2.10738096505081
H            7.11553502225174        3.53871669700649        3.28816676400371
H            7.00018768199638        5.23992456966806        3.73192855457618
H            5.50657444495642        4.61275855113995        5.72153502681195
H            4.04390650940835        3.66225860812194        5.44202016768953
H            5.63004807465150        2.91414213602403        5.26973546709608
H            5.86820804541628        1.65485513832735        3.40387622688687
H            4.90139202330553       -0.15278655458588        2.10925437777253
H            1.93717524174682       -0.19670611113871        2.89757361404513
H            0.34859662818558       -0.27854050942826        4.71082735881204
H           -3.99158245321296        1.04157973832941        3.73801391314559
H           -4.46650816227267        0.03492961951236        5.10139424703827
H           -4.12989094341885       -0.71353141436904        3.54207474605922
H           -2.10330150302015        2.00947325067091        5.14465160887291
H           -1.00868585235811        0.93792524664855        6.01578491525310
H           -2.70646815771259        1.02059257542442        6.47796623244327
H           -2.44605586910918       -2.24388420258878        4.62344054627783
H           -2.90865919263044       -1.52279964159626        6.16906329788909
H           -1.21072328662317       -1.60006400855999        5.70432950322681
H           -2.87308318166765        0.20967159069811        1.95891153816858
H           -1.92920859025732        2.48028916460183       -0.65420912767743
H           -2.87790423602332        4.27084010949926       -1.97997528357918
H           -5.62880639031249        2.85327792470711       -5.29894648156184
H           -5.51894761960775        4.55306153857126       -5.74989611784296
H           -4.04920333184513        3.61922227475174       -5.45193645691492
H           -6.60405999686410        4.64550259632087       -2.14878526517495
H           -7.04385607470119        5.16415769403971       -3.77888982819110
H           -7.14578203416198        3.46179491772286       -3.33637277879447
H           -3.36567639381083        5.46315098914990       -3.85186334800629
H           -4.90159186030601        6.27656390642061       -4.13026491869051
H           -4.41438084212490        5.88150111268873       -2.48561574436158
H           -5.87677345488972        1.59232586921759       -3.43472579406671
H           -4.90555407697826       -0.20410787904256       -2.12765080561274
H           -1.95721597941768       -2.45476655372002        0.00899174309901
H           -3.20814794155303       -4.20304538248646        1.13542097205449
H           -7.66630824420677       -4.62672832854440        2.95959317892645
H           -7.76453465265116       -3.57202714258616        1.55356599583221
H           -7.21573171218721       -2.93266513744478        3.11304439603614
H           -6.29203690641063       -5.20081484187732        0.26888090918617
H           -6.32631659915758       -6.22276894123662        1.70904095824397
H           -4.78631508868517       -5.77903342622551        0.97811283565786
H           -3.98052036848865       -4.80503474245514        3.20392958645879
H           -4.96157405082878       -3.59724483404568        4.03164782537155
H           -5.50900242411645       -5.27419454362104        3.94609263255537
H           -6.59494691010128       -1.60500707804907        1.39018136513715
H           -5.33473070170492        0.14415323063341        0.30112693822846
H           -1.95634872942735       -0.22280864457905       -2.89089909262883
H           -0.36590619530271       -0.27909382726784       -4.70260721643855
H            3.94160496867204        1.12720769559322       -3.72836082757289
H            4.12640328310677       -0.62395283192100       -3.53270498151479
H            4.44293206431464        0.13234107075388       -5.09134637821887
H            1.22767952251290       -1.58819089603961       -5.68699316002328
H            2.47519119609403       -2.19681673630009       -4.59997109504961
H            2.92486147692031       -1.47496440420503       -6.14952805431147
H            2.66382622527661        1.06323300597024       -6.47258038030599
H            0.96738985918931        0.94101121592728       -6.01493742341012
H            2.03256954532212        2.04355458568788       -5.14600599835529
H            2.84670552835615        0.25017648292730       -1.94786407367563
H            5.29847995438668        0.19097527829206       -0.33208339763823
H            6.55734807897941       -1.56527343255632       -1.42613236061978
