140
 energy: -177.448697790964 gnorm: 0.000094067874 xtb: 6.7.1 (edcfbbe)
C            6.20548181359180       -3.67117070824833        3.28196298172579
C            5.84273667429893       -2.32055604928412        3.91678696638806
C            5.08912343166285       -2.59341412615010        5.22125007134725
C            7.12294710771427       -1.54514242654804        4.25834650297762
C            5.01976596995595       -1.51810769765022        2.92278674644870
C            3.71068797342725       -1.11672340227613        3.16515292707241
C            2.98405745775321       -0.41659601305195        2.22327183093061
C            3.54101512074123       -0.09514237954948        0.98646753649505
N            2.76224435256546        0.53779349799505        0.01955254560088
C            3.32814400506265        1.38551130671925       -0.92869507872443
C            2.77139263045559        1.47272209346649       -2.20569196914532
C            3.31344996500677        2.31873682679842       -3.14741614972913
C            4.42910465538113        3.10828366052716       -2.87209832418593
C            4.98918496468245        4.01925048303329       -3.95192304810098
C            5.40641592613150        3.16782938571660       -5.15972930995523
C            6.21312530149368        4.80984566144372       -3.48157392717494
C            3.90461330801857        5.02114975690202       -4.37254742637325
C            4.97381797080423        3.01671563610775       -1.59577613092875
C            4.43671801190467        2.17946244401322       -0.63768228789742
C            1.38613808288233        0.27196163543910       -0.02376979377641
C            0.45869160962179        1.35880667423238        0.00273528061223
C            0.85380349755264        2.69272869848311        0.12516805061984
C           -0.06918521546176        3.72907955972950        0.13874941075722
C           -1.42467542052691        3.48540945450475       -0.02368961000659
C           -2.41892198233108        4.63401963154786       -0.00311423413315
C           -2.38121704109502        5.27153380972999        1.39374918165840
C           -3.85647242691332        4.18408024937085       -0.28013115524653
C           -2.03129977843869        5.67471725250169       -1.06237712745480
C           -1.82936764735504        2.15608962743798       -0.13435546469381
C           -0.93638198014663        1.08578001802343       -0.05316409296985
C           -1.38770121390458       -0.27332106852535       -0.02513347047892
N           -2.76380310264317       -0.53950512403705        0.01648460935876
C           -3.32932604045569       -1.38178317930919       -0.93682843969218
C           -2.77191758905128       -1.46169301630390       -2.21401787798528
C           -3.31340239203077       -2.30238920401343       -3.16080187352371
C           -4.42915249884654       -3.09353780448141       -2.89056767259299
C           -4.98844123796814       -3.99852818359120       -3.97580365935317
C           -3.90362635710465       -4.99832522082357       -4.40080749980483
C           -6.21295840656662       -4.79142798017332       -3.51085267361021
C           -5.40442772696225       -3.14059730518569       -5.17943775482711
C           -4.97457267098503       -3.00921149310769       -1.61405627816679
C           -4.43802778756348       -2.17739121971541       -0.65091593919305
C           -3.54274035779633        0.08818713446952        0.98666009408394
C           -2.98577928600224        0.40319634952706        2.22512470265288
C           -3.71216492556467        1.09896628445088        3.17039686090588
C           -5.02104356000167        1.50211814677064        2.92991415188398
C           -5.84352194839534        2.30049041991161        3.92758560356076
C           -7.12375870856790        1.52388527189683        4.26633389909848
C           -5.08936702578029        2.56776923674589        5.23290008194671
C           -6.20626419864576        3.65386578546337        3.29864231223569
C           -5.57671695073584        1.16091783300567        1.69721860979776
C           -4.86234099045469        0.47280453929759        0.74073353598506
C           -0.46026360253090       -1.36027606157103       -0.00463558284903
C           -0.85535312555081       -2.69484103617365        0.11069667967382
C            0.06766552599239       -3.73125339010968        0.11839802410652
C            1.42309368952109       -3.48670021863104       -0.04316864954301
C            2.41739429337563       -4.63535904979415       -0.02921166116450
C            2.38142032068309       -5.27931335415102        1.36474121702233
C            2.02856153661224       -5.67119717170180       -1.09278742423496
C            3.85457752500719       -4.18405271554216       -0.30596136416037
C            1.82777324380384       -2.15677621605470       -0.14652615140108
C            0.93479423271115       -1.08694831040562       -0.05925414141372
C            4.86064365407891       -0.47840265995705        0.73857116197235
C            5.57524276093537       -1.17097074571501        1.69165264270404
H            6.79088581499238       -3.53845882634555        2.37619791471550
H            5.30200689876522       -4.22087820896495        3.02597913447103
H            6.78745618125410       -4.26968170211852        3.97975178868205
H            4.18790192106782       -3.17433253140088        5.03914818807556
H            5.72533815076511       -3.16414289000559        5.89487516472709
H            4.82027121486266       -1.66459689553849        5.71919135230146
H            7.71348171528288       -2.09835506513063        4.98571413500948
H            6.87222609905137       -0.57525840817492        4.68319997118838
H            7.73645554654640       -1.38258082749193        3.37661522564153
H            3.23096048776722       -1.34585360511498        4.10257929906325
H            1.96831611844505       -0.11753120316115        2.43598160088281
H            1.91284934094775        0.86397629112466       -2.44831731252714
H            2.85432318815295        2.35395828825062       -4.12382457988962
H            6.16126600644173        2.44165399777884       -4.86486417282673
H            4.55993190892227        2.62878450068730       -5.57578210528014
H            5.82325353746579        3.80178654607930       -5.93959677164109
H            5.96353657445317        5.45525462942239       -2.64259073694336
H            6.57208191054398        5.43913562407710       -4.29363305897151
H            7.02194281159496        4.14322354147275       -3.19114109861854
H            3.03210052868734        4.51432154726065       -4.77508225380901
H            3.58842054152196        5.61348032006263       -3.51638228449755
H            4.29065821134201        5.69424066055825       -5.13533971198069
H            5.82929480209477        3.61166496764276       -1.32011943368930
H            4.86726936618228        2.15249755143316        0.35308255994638
H            1.89969391205106        2.93674201255747        0.22602410284350
H            0.29915181289126        4.73572498605031        0.26655809499474
H           -2.63878887881353        4.52862568659568        2.14674068221598
H           -3.09411489594138        6.09174161316440        1.45502238498118
H           -1.39170034930356        5.65861674171840        1.62194744953969
H           -3.93496621802608        3.70416185641181       -1.25316892479338
H           -4.51347871964650        5.05210474095207       -0.27870725619331
H           -4.20847887088269        3.49586535288862        0.48537203051989
H           -1.04233340650956        6.08319225472939       -0.87504323394916
H           -2.74426001883597        6.49697362499280       -1.06007992322127
H           -2.03073468223316        5.22045863415813       -2.05109363707258
H           -2.87308815821410        1.93797441867254       -0.26661894166301
H           -1.91329642968113       -0.85151879794933       -2.45274308264787
H           -2.85372183795172       -2.33206198799726       -4.13714073200567
H           -3.03061521209808       -4.48944897583196       -4.79967832859317
H           -3.58838845803339       -5.59537033461306       -3.54756480993612
H           -4.28901116679336       -5.66717467780827       -5.16764481621702
H           -7.02186062362648       -4.12622116916565       -3.21740451435010
H           -6.57138234864814       -5.41613499622107       -4.32666870329190
H           -5.96422871520958       -5.44152815398731       -2.67523814532660
H           -6.15935899983839       -2.41580824756918       -4.88138194547896
H           -4.55746492036332       -2.59956222001222       -5.59192136590711
H           -5.82074367997709       -3.77030414364873       -5.96301872660901
H           -5.83020081881855       -3.60572374585798       -1.34225614067831
H           -4.86910634347039       -2.15608687798515        0.33975585646696
H           -1.97014222665117        0.10274396436799        2.43638278403683
H           -3.23236907216734        1.32332819861100        4.10894656818572
H           -6.87307256648558        0.55226680025179        4.68722989749605
H           -7.73747162428554        1.36494311221421        3.38407663850063
H           -7.71405619793118        2.07424989496876        4.99604685320221
H           -4.82072644703433        1.63685442074367        5.72703158352398
H           -5.72511056105579        3.13605109651047        5.90902173149380
H           -4.18795433505900        3.14903650575411        5.05282258363304
H           -6.78782745716342        4.24952019456084        3.99920693894055
H           -5.30278448995186        4.20448118763776        3.04463397532747
H           -6.79207585633080        3.52514629473152        2.39256109454495
H           -6.58861383460722        1.45439854884960        1.46091193237777
H           -5.31260546719898        0.26040898836781       -0.21818538168436
H           -1.90120950192079       -2.93939027423696        0.21054198500482
H           -0.30063103548040       -4.73856176225030        0.24090959623224
H            1.39212171491731       -5.66729535895350        1.59239408794385
H            3.09428986490324       -6.09988145387895        1.42131508851950
H            2.64005191638013       -4.53991034221435        2.12081229086720
H            1.04005645382171       -6.08099196665955       -0.90589273855920
H            2.74184157817315       -6.49317045664358       -1.09544647634923
H            2.02631337643834       -5.21228344583949       -2.07934889730489
H            4.51152774856206       -5.05210557955047       -0.31004841719433
H            3.93164727515897       -3.69903669779292       -1.27658770245368
H            4.20777879753680       -3.49989860019712        0.46263157804854
H            2.87146472954974       -1.93789865425489       -0.27776998124154
H            5.31081053019988       -0.26119325655389       -0.21932112711790
H            6.58717696820101       -1.46310780483342        1.45386047286462
