140
 energy: -177.450426234141 gnorm: 0.000107982852 xtb: 6.7.1 (edcfbbe)
C            6.74909857189146        4.27545296371024       -0.27761060861845
C            6.32225013303588        3.58435157544304       -1.58060232913305
C            5.70771797137466        4.64197272518236       -2.50115737449688
C            7.55295321172209        2.99482012705585       -2.28433573650831
C            5.35240495901233        2.46190626376724       -1.25100537484325
C            4.04525429497089        2.42043380701420       -1.72308132665908
C            3.19110506972830        1.38638570828097       -1.39571188509163
C            3.61391727521693        0.34591622329641       -0.57049126254108
N            2.72107533799882       -0.66154189059565       -0.21081819761018
C            3.15651335901864       -1.95571405654575        0.06270468404051
C            2.48012043504281       -2.73490722337910        0.99952262476439
C            2.88676827298080       -4.02658852109338        1.26847056199460
C            3.98111865214356       -4.59369834852037        0.62498758154629
C            4.46345892757133       -6.00972359345241        0.89324817712390
C            3.62466083333706       -6.72703817883195        1.95429797532793
C            5.91685410185010       -5.96078855184734        1.38581640381021
C            4.38292872404293       -6.82021799818930       -0.40838306974554
C            4.64829884750137       -3.80625380990124       -0.31266037978033
C            4.25031071084271       -2.51842522577877       -0.59770467775264
C            1.35960777357434       -0.35107849396956       -0.08947252067962
C            0.39623819928709       -1.10085933546679       -0.83061524212128
C            0.75353864566433       -2.10425423010401       -1.73302663987114
C           -0.19350806767856       -2.79498341551495       -2.48043764851420
C           -1.53571772514511       -2.47121373610436       -2.39894865905737
C           -2.62754539970907       -3.18755498435474       -3.17394301875299
C           -2.07910239912794       -4.31787597494627       -4.04882576954744
C           -3.34951791592932       -2.18366841993150       -4.08376476001857
C           -3.62717160055126       -3.79213422325926       -2.17636520616351
C           -1.89595020661456       -1.42374789950626       -1.54622269199740
C           -0.98180468372625       -0.75593494400788       -0.73404243420884
C           -1.37966166460552        0.32413325330261        0.11870851470779
N           -2.73769340393801        0.65461348509360        0.22153478876414
C           -3.65508434971578       -0.33689239026893        0.56309237959695
C           -3.26580404584041       -1.38996013181250        1.38896861585015
C           -4.14589611639677       -2.40770396692502        1.69837451822610
C           -5.44674399940276       -2.41962721742054        1.20735531701294
C           -6.44468145538731       -3.52293057984303        1.51721944453291
C           -5.86563611114295       -4.59826291435156        2.44023230647836
C           -7.67228480617564       -2.91090559480638        2.20705899249126
C           -6.86816449747315       -4.19804984069559        0.20478275703423
C           -5.82747504647207       -1.35890766738025        0.38598238474904
C           -4.95891150041616       -0.33925709497411        0.06274540155912
C           -3.14405818774086        1.96013147539364       -0.04467830089047
C           -4.23352628492268        2.53949113654413        0.60433578915363
C           -4.60263630001842        3.84246820964880        0.33348017277184
C           -3.90312598464054        4.62353558017617       -0.58008807437386
C           -4.27163149955789        6.06360319685911       -0.89642829663710
C           -4.58373715206665        6.18536046322083       -2.39485233816767
C           -5.49663391755866        6.54536896308446       -0.11439513290793
C           -3.08690361664407        6.97160429673227       -0.53709234217618
C           -2.81124014109895        4.03572514047518       -1.21714095563755
C           -2.43570211540023        2.73502254654836       -0.96410012820632
C           -0.41682110610623        1.06603200682239        0.86908628516729
C           -0.77411767276416        2.06129895816034        1.78048264895078
C            0.17360370824650        2.75050186813695        2.52841295761879
C            1.51700076307311        2.43386948624959        2.43787756674057
C            2.60994824514974        3.15220686263165        3.20939885995151
C            2.06131076734051        4.27593017019082        4.09258519183465
C            3.34273411862117        2.14814392811266        4.11031822959479
C            3.59987649643885        3.76624610415404        2.20788652224491
C            1.87720166875654        1.39195392133522        1.57857651788226
C            0.96130257169028        0.72474853630977        0.76792792842058
C            4.92448767977647        0.37778137996767       -0.08925028817492
C            5.76687763788213        1.41359029648084       -0.43008073429613
H            7.24218284570360        3.58054838677856        0.39649149411233
H            5.87927673237061        4.68492894299997        0.23147335700669
H            7.43935685343481        5.08842017423102       -0.49328774374548
H            6.44399803575768        5.41693152828331       -2.70514223133099
H            5.40646689882091        4.20654190440121       -3.45117435011652
H            4.84554245841008        5.11258522718741       -2.03447610349442
H            8.25042143816475        3.78747650958304       -2.54713674920585
H            7.25425509888542        2.48149752947728       -3.19613535246523
H            8.07156207477509        2.28364123225470       -1.64742629527588
H            3.66845119987749        3.20039474076128       -2.36398603924802
H            2.18154509992265        1.37545355072526       -1.77924685529243
H            1.63227905400267       -2.31378990238837        1.51966614448739
H            2.33150373848825       -4.58606808760518        2.00329606620151
H            2.58734732208377       -6.81412670170634        1.63959667677637
H            4.01489223082035       -7.73140194952754        2.10696444835382
H            3.66608656583559       -6.20245805602343        2.90611181101807
H            6.27477955285999       -6.96587051785799        1.59920014598900
H            5.98482986859767       -5.36941146136409        2.29671323146110
H            6.57302907173901       -5.51724464887761        0.64210627719199
H            4.70671382031747       -7.84421218066706       -0.23372957718259
H            3.35881387614560       -6.83898560536062       -0.77541427706249
H            5.01382598545515       -6.39131132298510       -1.18194532276603
H            5.49650506284956       -4.20567803765240       -0.84826351083068
H            4.77305139116883       -1.94586215870433       -1.35034887735614
H            1.79264720855114       -2.36077344654533       -1.86630990086802
H            0.15477807525980       -3.58044386083497       -3.13094443186313
H           -1.38617750214395       -3.93344711169437       -4.79378200734971
H           -2.89976296180382       -4.80533535412159       -4.57188189300558
H           -1.57194891309322       -5.06699173545012       -3.44511267939647
H           -2.64257550782293       -1.72365828442410       -4.77134782659317
H           -3.82494943372851       -1.39632323517939       -3.50535035876984
H           -4.11799352069686       -2.68966114940866       -4.66487217195842
H           -3.11955701969029       -4.49445879718994       -1.51778709688303
H           -4.41393371344469       -4.32295215645225       -2.70945219756455
H           -4.08800367528224       -3.02442142892426       -1.56030366093540
H           -2.92757603878674       -1.11706537538860       -1.51864238137558
H           -2.26173073018074       -1.40209561387751        1.78661088054414
H           -3.79463090863047       -3.19868976670869        2.34026158729001
H           -5.00721495159989       -5.08460957249336        1.98285837031060
H           -5.56847738293578       -4.17445695923998        3.39676598450683
H           -6.62098699524988       -5.35843028340180        2.62962175218327
H           -8.16665401893274       -2.18543762373334        1.56697929455625
H           -8.39010553918356       -3.68985627762523        2.45568209752993
H           -7.37555390927205       -2.40892902377399        3.12576938194760
H           -7.33529424738174       -3.48899672969284       -0.47307821075652
H           -6.00060143109082       -4.62525072954604       -0.29343372070574
H           -7.57996923047990       -4.99588246263658        0.40648673420242
H           -6.82370398710446       -1.32759711856999       -0.02930465540834
H           -5.27828039575974        0.45014230763514       -0.60263088966304
H           -4.78072991679419        1.96989335842694        1.34178360506574
H           -5.44947464207205        4.24508776792778        0.86498907460667
H           -5.40853489605267        5.52765902711279       -2.66157226374436
H           -3.72392300489807        5.91621510543012       -3.00186742106049
H           -4.86526188968077        7.20796859271170       -2.63749346122778
H           -6.37225832497721        5.94451455496784       -0.34927042193368
H           -5.71545897384466        7.57696887102444       -0.38310849236140
H           -5.31588631296419        6.50945755714855        0.95742994302565
H           -2.20102856782421        6.71146115373314       -1.10964713762910
H           -3.33409978156106        8.01093857153205       -0.74352733108801
H           -2.84820780738467        6.87617888640582        0.52018297204591
H           -2.23708397573244        4.60010150962152       -1.93633251363919
H           -1.59078170401337        2.30099954163249       -1.47820352034781
H           -1.81356715408391        2.31282540069191        1.92041764244355
H           -0.17484446547445        3.53011383420130        3.18583383396707
H            1.37470220656375        3.88482569189240        4.83992638573021
H            2.88274601112982        4.76494675446110        4.61295969066153
H            1.54700457570117        5.02523403025484        3.49519548901980
H            2.64284233068601        1.68325916917073        4.80181779987768
H            4.11377291560904        2.65515772592306        4.68713558656792
H            3.81660461206312        1.36438942266640        3.52579296595459
H            4.38770556763250        4.29858012026620        2.73783284649422
H            4.06029028714957        3.00378196217477        1.58501886237892
H            3.08413798074333        4.46895718078961        1.55607834273611
H            2.90980575071666        1.08909561498020        1.54390400581360
H            5.27004288549101       -0.40131500355231        0.57523031652134
H            6.76933904009213        1.40524082123093       -0.02890816108527
