140
 energy: -177.505014069049 gnorm: 0.000063156415 xtb: 6.7.1 (edcfbbe)
C            6.18438166359980       -3.64522165284323        3.33689740309147
C            5.82583623175566       -2.28713312211578        3.95791940917834
C            5.06788978580355       -2.54452315839562        5.26302445083259
C            7.10869391973674       -1.51471712609330        4.29572974936207
C            5.00842961903221       -1.49005782562758        2.95441350540630
C            3.70153781057883       -1.08019711337787        3.18911650847201
C            2.97978574799342       -0.38566489396390        2.23795094687750
C            3.53883193039142       -0.08100704651299        0.99933483830424
N            2.76704032601510        0.54280403995530        0.01850777477168
C            3.33273719890036        1.37352044716370       -0.94744702593346
C            2.77790857257665        1.44536874024524       -2.22467635885867
C            3.31875548091358        2.28309244038692       -3.17606283053239
C            4.43257932148321        3.07671162274768       -2.91021568389693
C            4.99010979167756        3.97924044394477       -3.99904516544628
C            5.40693541084081        3.11910206315099       -5.20056865020269
C            6.21352468486296        4.77544182208382       -3.53683077123030
C            3.90403793828621        4.97663203000994       -4.42640608750275
C            4.97714929220438        2.99845235721136       -1.63377654020554
C            4.43986867305986        2.17122803740904       -0.66646799812392
C            1.38356088692678        0.27278028310709       -0.02680393188408
C            0.46145102905240        1.33248856420699        0.01300564381894
C            0.85358315395622        2.68637907238932        0.16033607730533
C           -0.05899435767128        3.69413850226368        0.17885388457426
C           -1.44035704934230        3.44473289142635       -0.00723396476479
C           -2.41512750478585        4.60917915387245        0.00119071583032
C           -2.36035292474643        5.26708686388009        1.38768966341610
C           -3.85950661610884        4.17161476211808       -0.25841887579059
C           -2.01716180535152        5.62413277823685       -1.07863616992300
C           -1.83932708694349        2.14672708072279       -0.14199717024870
C           -0.93569414796946        1.05727673265806       -0.06546519005364
C           -1.38650425742119       -0.27528480332904       -0.02708654566085
N           -2.76995695118996       -0.54589406857708        0.01720503941592
C           -3.33485262237243       -1.37056273737125       -0.95446528557217
C           -2.77931353292391       -1.43306699987970       -2.23189100773323
C           -3.31834673446384       -2.26516741297627       -3.18918768366620
C           -4.43113768005703       -3.06219608108197       -2.92929005363965
C           -4.98654727314949       -3.95829178398222       -4.02450993486434
C           -3.89897372039607       -4.95177501906108       -4.45716845282476
C           -6.20966319946239       -4.75867890604007       -3.56879018412888
C           -5.40296294434868       -3.09090927373410       -5.22097280920965
C           -4.97653943728152       -2.99315953232314       -1.65266589073058
C           -4.44107046209789       -2.17159023440851       -0.67950285204353
C           -3.54177454365072        0.07270357945392        1.00122612585726
C           -2.98197928476522        0.37305233923727        2.24062646071674
C           -3.70306806127824        1.06436270185659        3.19462806899958
C           -5.01013194064192        1.47505046965476        2.96228244987593
C           -5.82657880141721        2.26936268781797        3.96879805633801
C           -7.10697465494354        1.49379951264883        4.30869627805606
C           -5.06591444322806        2.52685714030855        5.27231517513973
C           -6.18956615783239        3.62761683162619        3.35070763649520
C           -5.56982317609292        1.14602783062451        1.72901418147937
C           -4.85999409188512        0.46400329055541        0.76411510056218
C           -0.46437489057180       -1.33519360818637        0.00634537257682
C           -0.85647972213632       -2.68980565873723        0.14685502241873
C            0.05602499988699       -3.69774552675229        0.15870908342057
C            1.43715666227502       -3.44742617563234       -0.02784159633201
C            2.41191743617724       -4.61192280239508       -0.02680863909911
C            2.36406717551111       -5.27188695361614        1.35895886532845
C            2.00863141619655       -5.62542047243097       -1.10603728153657
C            3.85489405205218       -4.17388475296447       -0.29341452506616
C            1.83616905744699       -2.14866063006342       -0.15521304785498
C            0.93269707973962       -1.05959471718238       -0.07184026551569
C            4.85649267159175       -0.47250930717494        0.75944900778665
C            5.56693808546377       -1.15790756996500        1.72144975034327
H            6.77192019032717       -3.52311419582720        2.43100100261892
H            5.27915955166038       -4.19375561668849        3.08420042153553
H            6.76271079930110       -4.23978300272138        4.04114179692091
H            4.16401923150714       -3.12238119935958        5.08399964848834
H            5.69954750035698       -3.11221399827351        5.94353116341246
H            4.80231595600643       -1.60978973902326        5.75152707116741
H            7.69530538366036       -2.06363301054108        5.02960431784322
H            6.86124171543590       -0.53975434337496        4.71075181928561
H            7.72466807838655       -1.36301124821929        3.41377225589541
H            3.21746029188605       -1.29765647245620        4.12724186154299
H            1.96363762421814       -0.08522587530901        2.44803496960311
H            1.91726386745354        0.83770387187565       -2.46375836094637
H            2.85788464123268        2.30763869097305       -4.15217902063597
H            6.16291442909350        2.39618294529861       -4.90064694192751
H            4.56042374011092        2.57562073013886       -5.61084491551156
H            5.82201033319298        3.74698798850563       -5.98636615683660
H            5.96385404188094        5.42777835376049       -2.70320284712290
H            6.57130342001564        5.39801018606028       -4.35464702770068
H            7.02311391744560        4.11220298068656       -3.24092708739214
H            3.03151841406767        4.46521431015026       -4.82322857792817
H            3.58853139370950        5.57565748735422       -3.57456087066238
H            4.28783009337635        5.64397964999238       -5.19543220781204
H            5.83275709713963        3.59592937661935       -1.36377725890627
H            4.87360612525716        2.15283002579449        0.32311121238918
H            1.90044588045822        2.91652590148734        0.28353628893167
H            0.28701256494073        4.70612349179053        0.32520520201188
H           -2.62234699389492        4.53894344814868        2.15333262028217
H           -3.06480192093509        6.09487107675844        1.43922055298304
H           -1.36715700849886        5.64988356725198        1.60664929427443
H           -3.95487583727031        3.69543022281417       -1.23165034192712
H           -4.50954892339005        5.04445610379208       -0.24577579196124
H           -4.20538472576160        3.48299493939512        0.50947520320517
H           -1.01952025036293        6.01881059845353       -0.90750378257182
H           -2.71577191526300        6.45831846378402       -1.08427905105340
H           -2.03368230000639        5.15335350079502       -2.05947923987948
H           -2.87661276864322        1.91709875791718       -0.30572243296053
H           -1.91944516914436       -0.82255723402823       -2.46646024387954
H           -2.85682161366036       -2.28249156901677       -4.16515157229214
H           -3.02620531524079       -4.43687833459742       -4.84892224900515
H           -3.58436516653966       -5.55665198754937       -3.60913202395064
H           -4.28101668721718       -5.61390130568984       -5.23156426245545
H           -7.02008372443224       -4.09812316485402       -3.26917502128439
H           -6.56615036363294       -5.37604098691204       -4.39110613796391
H           -5.96019246792503       -5.41638824821791       -2.73933584315744
H           -6.16044673113011       -2.37108672312708       -4.91742437635312
H           -4.55673474318156       -2.54349195457194       -5.62656804465079
H           -5.81599756475152       -3.71430211450850       -6.01141136137528
H           -5.83138454511777       -3.59370814542095       -1.38707281632347
H           -4.87549213503845       -2.16048195465296        0.30989080180518
H           -1.96559920500031        0.07222355775547        2.44902037358613
H           -3.21828489265711        1.27876629943265        4.13309464495686
H           -6.85645571124186        0.51918288849603        4.72269604652301
H           -7.72419556735242        1.34114178152633        3.42776429871376
H           -7.69344425845078        2.04094565008839        5.04400527303178
H           -4.79886191301747        1.59222580497519        5.76019057031629
H           -5.69633653102320        3.09421550677461        5.95425582255972
H           -4.16267778777750        3.10511860036385        5.09135956610150
H           -6.76834520474598        4.21935736707000        4.05696631071644
H           -5.28615444667447        4.17896900407896        3.09768852015958
H           -6.77823004733691        3.50578293789442        2.44551933785834
H           -6.58169685725746        1.44393756164262        1.49761782830136
H           -5.31613278923018        0.25849958913389       -0.19352747722132
H           -1.90323262709773       -2.92045101557322        0.27004903021535
H           -0.28983784550268       -4.71048562236161        0.30004226397476
H            1.37113486909442       -5.65230263234241        1.58332407988414
H            3.06670259685489       -6.10153379363894        1.40492804918216
H            2.63253723197890       -4.54553435268670        2.12405906625995
H            1.01316692378018       -6.02290843654636       -0.92891757207036
H            2.70901914265721       -6.45805430761492       -1.11822714243668
H            2.01738345801213       -5.15258768868045       -2.08597722755924
H            4.50435420826828       -5.04724437353425       -0.29031621915921
H            3.94401573368799       -3.69194442684032       -1.26441138633479
H            4.20646074009003       -3.49015444591050        0.47627423827511
H            2.87337328974947       -1.91814225892413       -0.31819727628679
H            5.31178484597962       -0.26403342625688       -0.19796501580080
H            6.57838604939301       -1.45571960567592        1.48810645097298
