  101
       -154.29416462
 C          4.3919286226        5.1766757398        0.2055145385
 C          4.3082690944        3.7151846763        0.6822579494
 C          5.6052008392        3.3074839612        1.4048328682
 C          3.1574855361        3.5838241285        1.6592866600
 C          3.1757129304        4.3283484948        2.8318599209
 C          2.1916351643        4.2096458170        3.7941734784
 C          1.1712355077        3.2965356250        3.6055174734
 C          1.1289109096        2.5473071823        2.4488307614
 C          2.0911859049        2.7065960410        1.4496301195
 N          2.0116844998        1.9542918188        0.2755268841
 C          0.9536625729        1.0531587056        0.1092998159
 C         -0.3649778482        1.5016150718       -0.0004718374
 F         -0.6058722399        2.8233650574        0.0396889503
 C         -1.4347584314        0.6247941832       -0.1419212249
 N         -2.7614541827        1.0755793956       -0.2282576963
 C         -3.6264695619        0.6962580833        0.7978688643
 C         -3.0907705316        0.2757581909        2.0173067934
 C         -3.9095713436       -0.1320555459        3.0486454446
 C         -5.2818434010       -0.1076412680        2.8814569676
 C         -5.8127308981        0.3601749571        1.6942809665
 C         -5.0095833659        0.7804248893        0.6423140316
 C         -5.6430735840        1.3079525757       -0.6283115484
 C         -6.5709629026        2.4815934900       -0.2666191771
 C         -6.4431094610        0.1641562750       -1.2777596931
 C         -4.6058355165        1.7883822420       -1.6253772430
 C         -5.0256048909        2.3545469227       -2.8221955254
 C         -4.1338522220        2.7638637062       -3.7952255823
 C         -2.7787236762        2.5877110470       -3.5878068782
 C         -2.3344706149        2.0232836515       -2.4104165363
 C         -3.2329695266        1.6394808542       -1.4143513465
 C         -1.1722741741       -0.7580230316       -0.1996389745
 C         -2.2515733623       -1.6382669394       -0.4444641157
 N         -3.1315670729       -2.3323415218       -0.6816172298
 C          0.1333166979       -1.2465612015       -0.0803168670
 N          0.4191773457       -2.6175063545       -0.1327878071
 C          0.0941415760       -3.4512784714        0.9418120013
 C         -0.8023642370       -3.0223258878        1.9209314853
 C         -1.1367175333       -3.8335541038        2.9848837026
 C         -0.5645016257       -5.0862267144        3.0989920355
 C          0.3487986512       -5.4989846929        2.1482781219
 C          0.6978945513       -4.7057083003        1.0624345283
 C          1.7520905847       -5.2061724958        0.0929676128
 C          1.3241004301       -6.5839892256       -0.4435615327
 C          3.0914978256       -5.3093998072        0.8445881781
 C          1.9362244843       -4.2663059668       -1.0796176046
 C          2.7969479586       -4.6053357067       -2.1155134601
 C          2.9683049975       -3.7943679036       -3.2211029192
 C          2.2359088915       -2.6261964348       -3.3269447214
 C          1.3830150846       -2.2633465018       -2.3069936703
 C          1.2616009603       -3.0496469337       -1.1593679429
 C          1.1867805351       -0.3321936814        0.0803869610
 C          2.5003901644       -0.8208586581        0.2677394605
 N          3.5525422883       -1.2268939598        0.4704906165
 C          3.0068478322        2.0128930675       -0.7028969077
 C          2.8519377915        1.3017837938       -1.8947832240
 C          3.8272463846        1.3227798279       -2.8686080842
 C          4.9689867793        2.0786222722       -2.6791574380
 C          5.0961212855        2.8305172311       -1.5273808863
 C          4.1291852417        2.8245086588       -0.5300296725
 H          4.5445233021        5.8499076205        1.0442761314
 H          3.4666151972        5.4558915675       -0.2949902045
 H          5.2136358125        5.3117956604       -0.4920208682
 H          5.5398063827        2.2678911413        1.7203849539
 H          5.7720480411        3.9242365830        2.2834234037
 H          6.4637322635        3.4125970064        0.7476836032
 H          3.9849112486        5.0208819405        3.0054288459
 H          2.2329350582        4.8095924438        4.6900549556
 H          0.4086441578        3.1596998302        4.3570671536
 H          0.3378249622        1.8218594317        2.3348066259
 H         -2.0200089852        0.2814132691        2.1666579284
 H         -3.4734209185       -0.4622537090        3.9793952540
 H         -5.9353031570       -0.4363551273        3.6746664085
 H         -6.8859223284        0.3899054722        1.5862491052
 H         -7.3326732863        2.1719368099        0.4428386866
 H         -7.0723514236        2.8688387259       -1.1486471762
 H         -5.9911736347        3.2867482169        0.1808993466
 H         -5.7814970539       -0.6733793755       -1.4912021462
 H         -7.2284820134       -0.1813556855       -0.6110400001
 H         -6.9000644555        0.4899028301       -2.2083099694
 H         -6.0816613999        2.4729320727       -3.0098315229
 H         -4.4958696415        3.2031007942       -4.7119980123
 H         -2.0638334181        2.8821452543       -4.3411734542
 H         -1.2737527625        1.8777662591       -2.2751568466
 H         -1.2509631168       -2.0436486006        1.8664967426
 H         -1.8409867050       -3.4792320571        3.7219221830
 H         -0.8156930565       -5.7317132371        3.9263619196
 H          0.8099749126       -6.4673818788        2.2651016334
 H          2.0469963261       -6.9657797774       -1.1581914320
 H          1.2363518381       -7.3075236865        0.3613042141
 H          0.3593301448       -6.5025319999       -0.9405163971
 H          2.9984031150       -5.9530244254        1.7152903008
 H          3.8637353810       -5.7144932464        0.1963309412
 H          3.4060527034       -4.3213215777        1.1754156531
 H          3.3583512627       -5.5250625990       -2.0588534114
 H          3.6544682433       -4.0822853854       -4.0024518201
 H          2.3220795839       -1.9998427705       -4.2018011346
 H          0.7884468502       -1.3663129029       -2.4073511827
 H          1.9551031380        0.7301523027       -2.0765391196
 H          3.6880624777        0.7519488304       -3.7737872642
 H          5.7452112611        2.0977473852       -3.4282948706
 H          5.9777028809        3.4406332434       -1.4049084862
