129
 energy: -199.025125526762 gnorm: 0.000058610146 xtb: 6.7.1 (edcfbbe)
C            0.66650268326745        0.07241582774191       -1.00742957563181
C            0.00440044554064        1.09288089709017       -0.07013402869394
C           -0.68011409144471        0.32698265234607        1.07143321643262
C            0.99705015803692        2.04989032339917        0.57049178236406
C            0.49732781582382        3.18290393633262        1.22084825316246
C            1.34680198418577        4.07983415397977        1.81905864243789
C            2.72730205986275        3.86287519432274        1.79975146979507
C            3.26880716287746        2.71372383414387        1.19626506473073
C            2.36015153893881        1.84245980788448        0.57619853984522
B            4.80359236140940        2.53900427239030        1.27041256350637
C            5.75689010044821        1.38561547672015        0.86830077877162
C            5.38868033891780        0.10119188604424        0.44341295308872
C            6.30807318141714       -0.85586954801733        0.08174067741239
C            7.67062970332523       -0.55892746064433        0.12875195355987
N            8.62859939425032       -1.53444564801040       -0.25317408665694
C            9.32090645147468       -2.22234171837722        0.73090503409310
C            9.03786066674784       -1.97605955851143        2.07764484620367
C            9.71518708604436       -2.63995504071027        3.07837606890560
C           10.68606812164208       -3.56983058805598        2.75359294954197
C           10.95282065819743       -3.83035589587755        1.42236807113111
C           10.28508099696058       -3.17837693685733        0.39477083363594
C           10.60880314137772       -3.52855405098788       -1.04525437722587
C           10.32315406477523       -5.02577578699318       -1.26263393516328
C           12.09576425976000       -3.22614314269145       -1.30583240972160
C            9.77407664452792       -2.72525465847144       -2.02441298130853
C            9.94164254892069       -2.92342839834114       -3.38798333685598
C            9.22534711753018       -2.20621170776841       -4.32817553004392
C            8.32056905701233       -1.25050675790366       -3.90311909438875
C            8.13438775382814       -1.03272905528061       -2.55439057897292
C            8.84298130504444       -1.77084086760957       -1.60162804264206
C            8.08194100424642        0.68442740239229        0.56438858108741
C            7.14016193286484        1.64217691077914        0.94728583047579
O            7.68644036996743        2.80318075306035        1.39290702166009
C            6.92674674039703        3.81064376467194        1.88563984420368
C            7.58936336201324        4.91230804554459        2.41395100210337
C            6.84898895495256        5.96039163087844        2.93270117074855
C            5.46630879744414        5.93243122109594        2.92797936382014
C            4.81010556569795        4.83169966666205        2.38608394381842
C            5.52563881960219        3.74642593926084        1.85715245763025
O            3.45857929571638        4.84457221417388        2.39421554369736
C           -0.96621863452720        1.90344738050938       -0.91439017787417
C           -0.44211091542728        2.86049884385563       -1.78938120708178
C           -1.27144966283222        3.61517418424497       -2.58087767449855
C           -2.65503903370287        3.42321837017032       -2.53558471503412
C           -3.22092927246016        2.44083908655732       -1.70314510707420
C           -2.33214844247075        1.71652780831736       -0.89390433918183
B           -4.75681521532221        2.26861857810741       -1.76453263759014
C           -5.73205897326956        1.24231744178826       -1.13378816564144
C           -5.38785339852154        0.08668861899928       -0.41838536724442
C           -6.32563098951662       -0.75870138202394        0.12764929824411
C           -7.68319116300126       -0.47469177704556       -0.02260354698508
N           -8.66015468944534       -1.33403730241852        0.54681262349032
C           -8.94733692701256       -1.21820688029659        1.89697988639500
C           -8.29144586475557       -0.24920232939043        2.66203058362632
C           -8.55209403726564       -0.11303336580032        4.00914047289417
C           -9.47870886037473       -0.93944185293067        4.61837282469464
C          -10.13948379880952       -1.88831005612974        3.86028750439491
C           -9.89682246718032       -2.04751070692013        2.50297322423026
C          -10.66829563845878       -3.09564901447139        1.72361405751615
C          -10.37858939682312       -4.47880516409828        2.33478689070809
C          -12.17059521182012       -2.77360652674155        1.82176217260419
C          -10.26951689892817       -3.12045182208886        0.26011997607600
C          -10.87608125724213       -4.02730096423756       -0.59800112739040
C          -10.54145944209994       -4.10857096404454       -1.93699560304399
C           -9.56487250974844       -3.26928987514201       -2.44164545050336
C           -8.94662859528568       -2.35804101550684       -1.61188894507159
C           -9.29550165455649       -2.26263174516248       -0.26153131440619
C           -8.07120161546020        0.63856776233362       -0.73974287489809
C           -7.11035635298200        1.48123276987935       -1.30363815132588
O           -7.63393889879191        2.51479147813983       -2.01223353039844
C           -6.85260387031899        3.38375277786640       -2.69715564920350
C           -7.49183348871424        4.34435071587697       -3.47207708542650
C           -6.72941064819606        5.24756069864659       -4.19219646178710
C           -5.34758960288011        5.21332410203805       -4.14894189264997
C           -4.71512848563752        4.25592056391988       -3.36200741473310
C           -5.45317797944703        3.31937200182323       -2.62180680441244
O           -3.36381556974118        4.25793869191089       -3.34331331688062
H            1.26984879038829        0.56893993712807       -1.76334137291101
H           -0.10661068300023       -0.50158165063550       -1.51501862759113
H            1.29063725019096       -0.62181973637279       -0.44956771101565
H            0.08019624490934       -0.13030434754145        1.70201733370435
H           -1.31680884878293       -0.46462996124380        0.68331131865469
H           -1.27536670450374        0.99447475152619        1.68951095159815
H           -0.56714309840034        3.36594317333288        1.23326811680181
H            0.97242326427113        4.96859265037109        2.30328874310713
H            2.76482622366221        0.98504939376752        0.06752003773174
H            4.34236787131450       -0.15626562787053        0.41825330294018
H            5.99210195997985       -1.83674554371803       -0.24069127797373
H            8.27505373878104       -1.25901027112061        2.33915867027738
H            9.48066516826661       -2.43025895107795        4.11145405332760
H           11.22618589276060       -4.09360937070263        3.52750808480719
H           11.70504554807062       -4.56681512772144        1.18287057230545
H           10.55523912469711       -5.32153202961600       -2.28200330134786
H            9.27077359114043       -5.23208050365535       -1.07629014721903
H           10.91659566955611       -5.63675992756449       -0.58818600208310
H           12.73107714097451       -3.79022056332479       -0.62853069933042
H           12.37160472243039       -3.48303253101840       -2.32488722579853
H           12.28905040575080       -2.16567102743234       -1.15493964258714
H           10.65359605444695       -3.65764322013624       -3.73380602393275
H            9.37906910037809       -2.38765127492694       -5.38102033313650
H            7.75947066701273       -0.66961432417413       -4.62005606379436
H            7.43456173237998       -0.27776081992124       -2.23055432409119
H            9.13162600566734        0.92617898740425        0.63044300293377
H            8.66729297179467        4.93122133154606        2.41706754451817
H            7.36049792976007        6.81525278659912        3.34838708715970
H            4.88737332415799        6.74827735452268        3.33004740749295
H            0.62517676602109        3.02236937378020       -1.82740643160787
H           -0.87858355479811        4.37176218811832       -3.24251085692925
H           -2.75436261225813        0.99553614665718       -0.21605195659798
H           -4.34535729646627       -0.16265805908077       -0.30649992976524
H           -6.02790281505394       -1.64129575622397        0.67377310169119
H           -7.57346260146288        0.40453867764803        2.19098402641798
H           -8.03151468515441        0.64148013579768        4.58008153771648
H           -9.69084069419159       -0.84394369021752        5.67237889956995
H          -10.86690639874998       -2.52040907644792        4.34700033723785
H           -9.31590455517327       -4.70153980613935        2.25796591655857
H          -10.65959369290751       -4.50631441853721        3.38396756859957
H          -10.93016151121615       -5.25690904578581        1.81443903779241
H          -12.49940133657386       -2.76577640967739        2.85729750709045
H          -12.36712219165442       -1.79319930566087        1.39178807051466
H          -12.76138692930079       -3.50906280162181        1.28269351786767
H          -11.63335899240587       -4.69493088764534       -0.21538323494147
H          -11.03482932741899       -4.82445797524425       -2.57663138682134
H           -9.28011808840707       -3.32293202105017       -3.48197356182844
H           -8.17975237524424       -1.71177450692058       -2.01045834398437
H           -9.11642478530407        0.86365585532159       -0.88615505181250
H           -8.56917468772162        4.36773815116194       -3.50492424229668
H           -7.22264406161936        5.99191113671658       -4.79872041036155
H           -4.75114872199145        5.91620141839597       -4.70809202336174
