129
 energy: -198.951492454973 gnorm: 0.000061684095 xtb: 6.7.1 (edcfbbe)
C           -7.27571455182890        2.00769897818828       -2.08769434949143
C           -5.89563738533589        1.37589767651791       -1.85219597895593
C           -5.20429662719765        1.25229374758111       -3.22313333252397
C           -5.08527873078541        2.24629531157540       -0.89956937134431
C           -5.71634778652498        2.91100482497005        0.15379171685813
C           -5.01103422731464        3.76637138710017        0.97604149512782
C           -3.64199912057838        3.94541333463709        0.79908988975720
C           -2.93966436065206        3.18832544918000       -0.16154549584198
C           -3.70873129688686        2.38570643745611       -1.01373977709098
B           -1.40860391085139        3.36047832200533       -0.19894262862146
C           -0.26621867014982        2.53885243559131       -0.81593574315743
C           -0.34677947905267        1.21771816353173       -1.29680678114671
C            0.75103159430064        0.53322720705861       -1.76757127974857
C            1.99496209410017        1.16172068888681       -1.81708684638562
N            3.12575531320621        0.46122234799667       -2.32002386988151
C            4.15281004833403        0.10443776494550       -1.46492124313393
C            4.12229441989455        0.51096839842975       -0.12496468462419
C            5.13999075283470        0.18620184391739        0.74315497507146
C            6.20355260355867       -0.58071894078082        0.30141356610221
C            6.22667589069821       -1.00906005903451       -1.01277466997662
C            5.22582118368546       -0.67849900921651       -1.91527245972828
C            5.31675462555352       -1.18048751168831       -3.34179783418145
C            5.27108478752585       -2.71966897928194       -3.33207568392489
C            6.64353023835837       -0.69146885519184       -3.95324836364409
C            4.17451186457119       -0.66774789221273       -4.19332283767375
C            4.12860734113921       -0.98891233580411       -5.54298272203100
C            3.12692948651452       -0.52257565715834       -6.37383481965439
C            2.14644880358609        0.30694518190650       -5.85475405449019
C            2.16156125210540        0.63347893880078       -4.51736022327442
C            3.15413250621695        0.13377557878479       -3.66312356054201
C            2.12203127396920        2.46836637585244       -1.35416388507165
C            1.02150828544177        3.12754702291234       -0.82237177308301
O            1.30319146565136        4.35997547361764       -0.30520798521067
C            0.40504348838959        5.01284405415314        0.48705082080612
C            0.85389501296086        6.12536939845848        1.18857147566295
C           -0.02445807199287        6.79613020549739        2.02722721313745
C           -1.33676745592583        6.37514033972861        2.16861314120731
C           -1.77989323097500        5.27176469209630        1.44591848684471
C           -0.91838303142330        4.56957012452335        0.59163466792008
O           -3.07252451739120        4.88788309190352        1.60684096454441
C           -5.99091385324882       -0.03675412841518       -1.29088025792898
C           -7.11867968895241       -0.84131529693548       -1.45895250028244
C           -7.10056453095196       -2.16772904231267       -1.07024367224858
C           -5.95446666317822       -2.72336444172234       -0.50629601162367
C           -4.82094974809413       -1.92145337828826       -0.25333169234399
C           -4.88116173471304       -0.59195247843498       -0.67701761804985
B           -3.59572562188116       -2.60373887623872        0.37091422945559
C           -2.26911934252079       -2.05907855105376        0.90734786053813
C           -1.97503542939411       -0.73045384936451        1.26573167932659
C           -0.72634068223153       -0.32163790166194        1.66408899063342
C            0.34542552742088       -1.23025095121086        1.68370887428042
N            1.64214017913298       -0.86728156257882        2.00555113540263
C            2.02372343659668        0.31857956021045        2.65612794930173
C            1.63679397361835        1.57264703953536        2.19263480367128
C            2.06207209435364        2.71643960193734        2.84114316407666
C            2.90224249751862        2.61589860001231        3.93519660224715
C            3.33767995879448        1.37193877646477        4.36242140534125
C            2.91526072300376        0.21170180875334        3.73463198348925
C            3.35915889126966       -1.18179274064099        4.14068895264819
C            4.56577433141935       -1.16701380231659        5.07885240508054
C            2.19484474614296       -1.88472625102141        4.86886661078966
C            3.64207062010989       -1.91849218130146        2.84536628983052
C            4.73303314768080       -2.74242216232766        2.62484219905899
C            4.89797033263501       -3.39320742933965        1.41327177903346
C            3.97559342629610       -3.21819971486744        0.39537357934218
C            2.88710220389882       -2.39430506744349        0.58921435665449
C            2.71030084542594       -1.75644825479268        1.81454693326276
C            0.05097367889277       -2.58532001326076        1.46196424939140
C           -1.22396455575738       -2.99356048834545        1.11719844050983
O           -1.38094355829027       -4.34591028576286        1.01253041528722
C           -2.59637605119065       -4.90979151330196        0.75878667876820
C           -2.69504613486386       -6.29377995086948        0.82476670016391
C           -3.91406878031273       -6.90094988951822        0.55268910597143
C           -5.02428986355980       -6.15191835031205        0.20109868910274
C           -4.91260839856029       -4.76587450589371        0.12270563417226
C           -3.70120647886409       -4.12180595535568        0.41515409987207
O           -6.01304138404533       -4.06260639043125       -0.24954470454268
H           -7.92882370259804        1.88102008092223       -1.22866341750681
H           -7.75972876195511        1.55711939022115       -2.95109770111121
H           -7.16116125050547        3.07178057927214       -2.28443403003058
H           -4.98803085780894        2.23873744897430       -3.62804549831572
H           -5.85977634817190        0.72656227384387       -3.91470403828960
H           -4.28067941104984        0.68441207929083       -3.15406592054657
H           -6.77212535476012        2.78554937210803        0.32912748211867
H           -5.51087630878303        4.32239003953107        1.75465121077051
H           -3.17812849653032        1.87864275072868       -1.80321843550353
H           -1.29955137220704        0.71353261664731       -1.25862375655031
H            0.65806610722773       -0.48918693400986       -2.10524572143289
H            3.29207654696891        1.09297684225781        0.23747691903594
H            5.09397467106572        0.53025999518742        1.76539828195347
H            7.00532354541264       -0.84741188791951        0.97226534579977
H            7.05482735761813       -1.61905427538241       -1.33975725880643
H            4.30657126508855       -3.05730242087241       -2.95780540044849
H            6.05169070369603       -3.12561481265984       -2.69450727733607
H            5.40617084014062       -3.11562142727803       -4.33490731112069
H            6.67745073783082        0.39616616153982       -3.93955087566759
H            7.49293335343512       -1.06860664961253       -3.39137464638299
H            6.74444759314253       -1.02441895267892       -4.98208138743589
H            4.89457037697709       -1.62167989957820       -5.96464951649666
H            3.11953116847239       -0.79396834283565       -7.41820692322095
H            1.37063768431926        0.70220515100861       -6.49265887235628
H            1.40368736076294        1.29012783983573       -4.12115935160013
H            3.07724679708856        2.97012414510750       -1.37548915791872
H            1.87749099945761        6.44793588706130        1.07735347608304
H            0.32103197471444        7.65706350084299        2.57882722788348
H           -2.02157175105315        6.89144031464124        2.82261249762404
H           -8.01302153722899       -0.45166139952653       -1.91765440765018
H           -7.96104867004190       -2.80018891947292       -1.22854548853748
H           -4.00175052541024        0.01428534819461       -0.53571097019708
H           -2.77174789748839       -0.00307791286528        1.24371930406616
H           -0.59089157111759        0.70180169758533        1.96615967694427
H            1.03753346154582        1.65604718113367        1.30104821623407
H            1.74792688255676        3.68404671260583        2.48127700475081
H            3.23681955161318        3.50556495205775        4.44641160055465
H            4.01542046204240        1.32044397720968        5.19899063246831
H            5.41804398205751       -0.67714634008660        4.61301335737425
H            4.31880577563349       -0.64891252154749        6.00200521390378
H            4.84369042326708       -2.18373566398308        5.34482388787984
H            1.95280287471429       -1.34612627204201        5.78268261726647
H            1.30200921487200       -1.92763019657990        4.25128528700318
H            2.48160399236994       -2.90184288242862        5.12765747676041
H            5.46829631170943       -2.89190239141052        3.39868049418546
H            5.75204452423629       -4.03606224790745        1.26396337475484
H            4.11155814820451       -3.71748332975191       -0.55121303291056
H            2.17098968618132       -2.22663784088582       -0.20077883942376
H            0.80600161260289       -3.34379320674670        1.59643738961796
H           -1.82705350677174       -6.87888803405050        1.08503918009429
H           -3.99495361208095       -7.97555295811493        0.61135686201794
H           -5.96997888916633       -6.62246184285686       -0.01679614718760
