  129
       -199.03697326
 C         -7.2235877961        1.9644206242       -2.2272345881
 C         -5.8551301103        1.3326054471       -1.9341251224
 C         -5.1282408159        1.1584391544       -3.2799064216
 C         -5.0681795662        2.2269635703       -0.9846097365
 C         -5.7208249862        2.8826721916        0.0635387888
 C         -5.0435831730        3.7375210283        0.9015501366
 C         -3.6710217887        3.9339723485        0.7481834791
 C         -2.9542649251        3.1987944994       -0.2124386476
 C         -3.6969863712        2.3881358422       -1.0811321683
 B         -1.4226231298        3.3761265387       -0.2153697770
 C         -0.2634295539        2.5673526475       -0.8385896420
 C         -0.3376133615        1.2636337763       -1.3489037401
 C          0.7680935741        0.5947584460       -1.8196418231
 C          2.0125600598        1.2305794519       -1.8418671524
 N          3.1440716354        0.5434398436       -2.3451027095
 C          4.1647625138        0.1559971072       -1.4833339474
 C          4.1439931636        0.5536811007       -0.1444985653
 C          5.1434739640        0.1834368674        0.7292143932
 C          6.1813868061       -0.6146903213        0.2881603706
 C          6.1963110613       -1.0278768741       -1.0301856321
 C          5.2112008210       -0.6555902907       -1.9348035433
 C          5.2979839421       -1.1499024640       -3.3663878760
 C          5.2057662779       -2.6862710476       -3.3687277387
 C          6.6425671880       -0.6950968199       -3.9635637727
 C          4.1765936341       -0.5961501321       -4.2229877322
 C          4.1392285201       -0.8980926642       -5.5777013835
 C          3.1609063234       -0.3970503790       -6.4156173037
 C          2.1969458563        0.4480712146       -5.8964369726
 C          2.2061586446        0.7568282673       -4.5529685967
 C          3.1732219519        0.2223151637       -3.6953424968
 C          2.1257705119        2.5202405380       -1.3569448176
 C          1.0122829311        3.1651314398       -0.8156465778
 O          1.2827214999        4.3786880524       -0.2610825533
 C          0.3769817201        5.0135422645        0.5248802811
 C          0.8071472239        6.1180220387        1.2508440805
 C         -0.0893829257        6.7665853116        2.0836026892
 C         -1.4018883208        6.3447485164        2.1997312254
 C         -1.8327797625        5.2538609275        1.4514297464
 C         -0.9498761576        4.5686626264        0.6044519791
 O         -3.1229492252        4.8662001023        1.5779099403
 C         -5.9703509646       -0.0570477895       -1.3182950791
 C         -7.1085437028       -0.8525430901       -1.4448051309
 C         -7.1117565735       -2.1563807037       -0.9960432254
 C         -5.9714700174       -2.7060299654       -0.4106704961
 C         -4.8299798356       -1.9124416574       -0.2062996619
 C         -4.8685307757       -0.6028877916       -0.6861598970
 B         -3.6039933242       -2.5848808037        0.4410079436
 C         -2.2641840248       -2.0356843872        0.9440466959
 C         -1.9441439547       -0.7037162237        1.2393870048
 C         -0.6876176716       -0.3009183106        1.6179139167
 C          0.3695836678       -1.2240837662        1.6655129300
 N          1.6728617752       -0.8692129497        1.9652862175
 C          2.0664419064        0.3019200317        2.6401500718
 C          1.7133997566        1.5676075691        2.1864873537
 C          2.1542908493        2.6968854212        2.8512628263
 C          2.9801325057        2.5681774403        3.9520061423
 C          3.3786985189        1.3110544131        4.3742742172
 C          2.9339031172        0.1660179141        3.7327790600
 C          3.3374539276       -1.2406993112        4.1375359725
 C          4.5227753326       -1.2613894231        5.1019979891
 C          2.1415873945       -1.9217431789        4.8343680396
 C          3.6315890571       -1.9752245515        2.8425352789
 C          4.7143027226       -2.8162664809        2.6378083220
 C          4.8903213212       -3.4619964719        1.4267442110
 C          3.9920788934       -3.2635919860        0.3928379317
 C          2.9169070840       -2.4176675388        0.5714845189
 C          2.7284515061       -1.7863625574        1.7952934547
 C          0.0552074818       -2.5702184871        1.4810826321
 C         -1.2353301473       -2.9732666884        1.1625739296
 O         -1.4048257829       -4.3259283395        1.0982226154
 C         -2.6226337738       -4.8839373202        0.8857788652
 C         -2.7388086363       -6.2646555263        1.0032329525
 C         -3.9694276276       -6.8578180218        0.7787586624
 C         -5.0797856657       -6.1115622429        0.4228425864
 C         -4.9546864452       -4.7328892494        0.2887804065
 C         -3.7290500673       -4.0986119097        0.5355349537
 O         -6.0524292713       -4.0290627617       -0.0866350152
 H         -7.8980046584        1.8817784578       -1.3795206734
 H         -7.6916043221        1.4802655356       -3.0810548105
 H         -7.0949081211        3.0179404079       -2.4676100226
 H         -4.9003549693        2.1281511446       -3.7176223717
 H         -5.7668752318        0.6078725690       -3.9676243811
 H         -4.2082753951        0.5915241050       -3.1667159089
 H         -6.7778757804        2.7411934214        0.2197029931
 H         -5.5605102813        4.2801506275        1.6781288416
 H         -3.1477412320        1.8925143778       -1.8649155889
 H         -1.2887425160        0.7547559994       -1.3305118141
 H          0.6857802680       -0.4192632769       -2.1816946174
 H          3.3334807801        1.1585436670        0.2252521106
 H          5.0996875982        0.5187427664        1.7547487579
 H          6.9677544760       -0.9188120247        0.9616077395
 H          7.0044334727       -1.6631685852       -1.3601112939
 H          4.2370053025       -2.9973383077       -2.9825314670
 H          5.9825201075       -3.1219302166       -2.7459465268
 H          5.3138743017       -3.0781983129       -4.3766768336
 H          6.7023185880        0.3915436685       -3.9509126969
 H          7.4768577384       -1.0907590435       -3.3915941678
 H          6.7480532692       -1.0318784508       -4.9908907139
 H          4.8944364812       -1.5451287937       -5.9978831466
 H          3.1597899388       -0.6543989790       -7.4637779272
 H          1.4372802253        0.8720744217       -6.5362485016
 H          1.4585817472        1.4285904815       -4.1603125101
 H          3.0774821273        3.0289048585       -1.3530220109
 H          1.8310494233        6.4457378840        1.1657055379
 H          0.2445597309        7.6184093636        2.6565682683
 H         -2.0973529060        6.8511990128        2.8494870509
 H         -7.9983765498       -0.4695316248       -1.9185519179
 H         -7.9835252381       -2.7807879884       -1.1202194317
 H         -3.9770586789       -0.0074918529       -0.5739839674
 H         -2.7279435365        0.0379216469        1.1927371969
 H         -0.5339976715        0.7290793635        1.8879666603
 H          1.1230016001        1.6713106634        1.2909825368
 H          1.8659496933        3.6751240576        2.4972494934
 H          3.3307583530        3.4457002750        4.4739942913
 H          4.0448077480        1.2371874293        5.2185844331
 H          5.3968303665       -0.7902657103        4.6576620188
 H          4.2689739772       -0.7430460746        6.0234557555
 H          4.7696522548       -2.2866655450        5.3665266274
 H          1.8988305254       -1.3917063384        5.7531343816
 H          1.2588122225       -1.9294177445        4.2013711690
 H          2.3952738489       -2.9507224717        5.0806536689
 H          5.4327501796       -2.9819528130        3.4242729744
 H          5.7359089375       -4.1188776518        1.2891161263
 H          4.1366410818       -3.7586973563       -0.5547685028
 H          2.2178214514       -2.2339266364       -0.2305057731
 H          0.8025532784       -3.3363248768        1.6164398565
 H         -1.8753330632       -6.8517843823        1.2724298527
 H         -4.0642936016       -7.9288451813        0.8777985260
 H         -6.0329655697       -6.5807592967        0.2382513069
