129
 energy: -199.037107938325 gnorm: 0.000026817798 xtb: 6.7.1 (edcfbbe)
C           -7.27033481950945        2.00740212140943       -2.09076720467979
C           -5.89085446578020        1.37565516860297       -1.85270074587304
C           -5.20075443870843        1.24032362812079       -3.22260216193751
C           -5.07928799848995        2.25315429216680       -0.90796817334178
C           -5.70755690728915        2.91737211108693        0.14962711174342
C           -5.00870294077800        3.76987092545419        0.97239115987953
C           -3.63826073672202        3.95695560401418        0.79219735246820
C           -2.94377540183893        3.20877890889472       -0.17483572138571
C           -3.70769945636207        2.39929940155335       -1.02590780370902
B           -1.41140216763227        3.37709384431280       -0.20686963068105
C           -0.26648807289326        2.55266412780782       -0.83595434025571
C           -0.35401941314589        1.23918586330332       -1.31827957842756
C            0.74279254415823        0.55344349651710       -1.78643230382564
C            1.99005743779779        1.18192453013380       -1.83758193204362
N            3.11569122363119        0.48017524643871       -2.33351222825676
C            4.15206232544317        0.13298099517071       -1.47329817227596
C            4.12728160896260        0.54716079315374       -0.13931151407620
C            5.14205504276129        0.21790939053581        0.73312674864065
C            6.20116692577793       -0.55414256595795        0.29583257521184
C            6.21962833018791       -0.98575564473559       -1.01660908187359
C            5.21739581115980       -0.65675886710442       -1.91922539947679
C            5.30766507875852       -1.17188874131956       -3.34301596915101
C            5.26906789933311       -2.71046002883561       -3.32014230063358
C            6.63012110643268       -0.68106944626660       -3.96092441522136
C            4.15967655828669       -0.67185932594857       -4.19734080719943
C            4.11615257988120       -1.00708551406999       -5.54403340834553
C            3.11400649137832       -0.55555812798007       -6.38186509803224
C            2.13199361863121        0.27379833898756       -5.87126105807488
C            2.14777298083303        0.61572462095119       -4.53586470684800
C            3.13899413348799        0.12991038218780       -3.67687372641534
C            2.11497617960375        2.48216759176196       -1.38435123859633
C            1.01234265345185        3.14443875207681       -0.84290947980193
O            1.29618506035257        4.36809625752892       -0.31790567045394
C            0.40778681975467        5.01822378648822        0.47517637008729
C            0.85513714991829        6.13261199104408        1.17521544910466
C           -0.02257839387404        6.79549764031934        2.01669126602215
C           -1.33309869084185        6.37805558225603        2.16689853498966
C           -1.78184866360341        5.27767557194105        1.44342051339132
C           -0.91843621959558        4.57857268310429        0.58782518327786
O           -3.06976088911532        4.89433656430556        1.60234948878711
C           -5.98636583074768       -0.03209462254687       -1.27571735262283
C           -7.11492155570386       -0.83678513681326       -1.43110608181679
C           -7.10241434520285       -2.15591735968822       -1.03050511250216
C           -5.95459887452107       -2.71317978730145       -0.46733043401724
C           -4.82367618552128       -1.91319631865640       -0.23229651622786
C           -4.87875574970495       -0.58659114380347       -0.66200615992500
B           -3.58802240002421       -2.59519844037687        0.38595716316897
C           -2.25424026048889       -2.04923348443018        0.90741038993358
C           -1.95066486634075       -0.72561555757789        1.25350620808405
C           -0.69865668174095       -0.32200068329859        1.64510684403039
C            0.37067369486440       -1.23276211437343        1.65669671916445
N            1.66719300771267       -0.86811770400777        1.97052971900511
C            2.03980275565181        0.30933258399519        2.64594921356636
C            1.67048520799068        1.56866968330218        2.18722098225184
C            2.08785037961155        2.70547528029801        2.85445472314748
C            2.90724521599280        2.59088992306602        3.96161303631649
C            3.32290919876785        1.34073179175807        4.38827650136889
C            2.90064464854028        0.18810091533330        3.74518315541222
C            3.31998455472274       -1.21232077657430        4.15550968208199
C            4.49850034888946       -1.21432384934953        5.12864579532955
C            2.12822291251622       -1.90725782577605        4.84520801849850
C            3.63349536948950       -1.94550584282944        2.86418309718210
C            4.72928056672091       -2.77221661337190        2.67071077805794
C            4.92527040669944       -3.41747768299664        1.46251447239494
C            4.03506441553912       -3.23095264889819        0.41966024229435
C            2.94750053110730       -2.39841751501093        0.58659314852687
C            2.73730199353005       -1.77020846527665        1.80843520231106
C            0.07219595108754       -2.57498766763410        1.42433281033529
C           -1.21338735488291       -2.98115701082816        1.08996132474127
O           -1.36548016086280       -4.33232629365131        0.97198627322871
C           -2.57580606732444       -4.89719817351674        0.73653970035933
C           -2.67309262369228       -6.28311588388798        0.79597184643399
C           -3.89587746043042       -6.88307883555115        0.54822473948082
C           -5.01692092013349       -6.13772371423199        0.22541129250108
C           -4.91050050205105       -4.75313618050268        0.14863814386899
C           -3.69313996505339       -4.11307926693446        0.41989824397520
O           -6.01810634955668       -4.04899989228628       -0.19624688752955
H           -7.92330420595134        1.88803479463711       -1.23055751265743
H           -7.75552064453311        1.55065090145994       -2.95001043327234
H           -7.15543161214337        3.06975930107386       -2.29664977348925
H           -4.98577825875449        2.22241373421753       -3.63871195327309
H           -5.85670500356129        0.70764358835138       -3.90805567805081
H           -4.27716736197537        0.67266732223959       -3.15005915289550
H           -6.76289448213984        2.78639892788062        0.32488951399373
H           -5.50783946024617        4.31996459802553        1.75533710172079
H           -3.17568177981175        1.89596440919861       -1.81675967888854
H           -1.30772761723596        0.73629945470977       -1.27807619378463
H            0.65038968368372       -0.46847054968088       -2.12290884416726
H            3.30124369757347        1.13251334227479        0.22775846721818
H            5.09364488398142        0.56448166695186        1.75479265630536
H            7.00098177435286       -0.82449568882425        0.96788187700151
H            7.04475947737485       -1.60047623512054       -1.34320373938644
H            4.30875119957507       -3.04846878956026       -2.93526355560326
H            6.05602700182484       -3.10869907362596       -2.68529556186102
H            5.39771414037301       -3.11527244889087       -4.32054288161341
H            6.65485750175136        0.40703162601744       -3.96160770292276
H            7.48293627143998       -1.04294168225482       -3.39381019024996
H            6.73473145692075       -1.02647142318573       -4.98552302423710
H            4.88596783305225       -1.64079726331295       -5.95772630122716
H            3.10841290175956       -0.83853814937968       -7.42338939915463
H            1.35290671891140        0.65986137241755       -6.51166062949044
H            1.38562903696966        1.27573001261428       -4.15161035083021
H            3.06965770534393        2.98496091650587       -1.40238519784937
H            1.87793663272076        6.45593654892632        1.06440073055271
H            0.32486907369813        7.65503849623529        2.56976456127763
H           -2.01350941913125        6.89547751028287        2.82391565178388
H           -8.00958405631424       -0.44774748267711       -1.89057935385185
H           -7.96664414104055       -2.78586299941338       -1.17739507544805
H           -3.99464114446979        0.01490198656105       -0.52729479026361
H           -2.74387902563334        0.00719902977351        1.23724374526985
H           -0.55718556009737        0.69852966053905        1.95553062791789
H            1.08385993579963        1.66129503133978        1.28787777154185
H            1.78546233449009        3.67878209482070        2.49818890018341
H            3.23917171575116        3.47445438699081        4.48558105519708
H            3.98363418683262        1.27807303028318        5.23769229123142
H            5.36871959194693       -0.73120630605000        4.68977921765655
H            4.23028455183740       -0.69808279917844        6.04715410883389
H            4.75841456188484       -2.23527280999619        5.39706391767313
H            1.86415654592105       -1.37152589075289        5.75487154951292
H            1.25377647235031       -1.93836999851977        4.20127416822072
H            2.39740885077908       -2.92868393399420        5.10632879539973
H            5.44245593700434       -2.92719408621642        3.46408864117885
H            5.78027622818054       -4.06401143801385        1.33417103173459
H            4.19551062903249       -3.72469068088498       -0.52602812861125
H            2.25668373830610       -2.22281852781281       -0.22423775872270
H            0.82721780239942       -3.33755904846559        1.53361548067967
H           -1.80122650687811       -6.86913561157939        1.03929416006637
H           -3.97596154210304       -7.95851609486294        0.60224042846751
H           -5.96400897243705       -6.61165624596076        0.02256760454755
