  56
        -83.95966401
 C         -7.8584543026        0.4698155724        0.1615427849
 C         -7.2663473489        1.2183332383        1.1898033884
 C         -5.9071842250        1.2413230928        1.3343375985
 C         -5.0759837884        0.5134235882        0.4544247074
 C         -3.6766686622        0.5210855684        0.5765888999
 C         -2.8691136430       -0.2068821662       -0.2792263091
 C         -1.4201811559       -0.1998824133       -0.1444617409
 C         -0.7108221740       -1.4359085320       -0.0450253346
 C         -1.3768523023       -2.6635697993        0.0255066409
 C         -0.6807755050       -3.8692244875        0.0236193474
 C          0.6956553075       -3.8658669115       -0.0585389522
 C          1.3859926121       -2.6568122787       -0.0574154816
 C          0.7143896083       -1.4325672299        0.0162359741
 C          1.4191442557       -0.1934464815        0.1186996892
 C          2.8657790977       -0.1993711273        0.2711149659
 C          3.4677573586       -0.9636078893        1.3034114743
 C          4.8188893409       -0.9774144115        1.4736527220
 C          5.6713621031       -0.2482637857        0.6128587646
 C          7.0706850280       -0.2563533032        0.7525161143
 C          7.8630443246        0.4625487710       -0.1027881557
 C          7.2863020198        1.2212984656       -1.1322766580
 C          5.9290061438        1.2509118128       -1.2929442250
 C          5.0843437232        0.5197968228       -0.4285306223
 C          3.6867801119        0.5309242944       -0.5701928884
 C          0.7043902194        1.0438130058        0.0786058235
 C          1.3469650046        2.2727353824        0.2560387607
 C          0.6629750856        3.4782058781        0.1250331391
 C         -0.6797140148        3.4736914327       -0.1883730272
 C         -1.3584550630        2.2638709937       -0.3048239226
 C         -0.7095261090        1.0399107135       -0.1167047851
 C         -3.4860420246       -0.9655081375       -1.3062194424
 C         -4.8395459649       -0.9742769908       -1.4588941296
 C         -5.6785104343       -0.2466566317       -0.5838819458
 C         -7.0795614108       -0.2471600165       -0.7073606939
 H         -8.9338573817        0.4631849496        0.0619130662
 H         -7.8953394007        1.7763428478        1.8680094323
 H         -5.4459117155        1.8177271268        2.1237901640
 H         -3.2286159554        1.0784492305        1.3871639443
 H         -2.4537721732       -2.6809982257        0.0865543563
 H         -1.2263221100       -4.7998373053        0.0684762634
 H          1.2457478607       -4.7936890373       -0.1070670500
 H          2.4629560138       -2.6692767445       -0.1192561066
 H          2.8261260170       -1.5059713783        1.9827973786
 H          5.2613770640       -1.5461115572        2.2795863967
 H          7.5104489500       -0.8414743263        1.5479273521
 H          8.9371475349        0.4506856271        0.0098158427
 H          7.9255118014        1.7825974044       -1.7981859505
 H          5.4796955826        1.8348548356       -2.0838631443
 H          3.2517552031        1.0927120441       -1.3848498470
 H          2.3958805799        2.2913505759        0.5075809459
 H          1.1934770964        4.4092136093        0.2578277834
 H         -1.2142925821        4.4008126985       -0.3314634373
 H         -2.4082492683        2.2745673481       -0.5533797864
 H         -2.8549356989       -1.5065580599       -1.9963849180
 H         -5.2942006883       -1.5372565060       -2.2620328854
 H         -7.5313285408       -0.8251195192       -1.5012572281
