56
 energy: -83.992748579040 gnorm: 0.000055586532 xtb: 6.7.1 (edcfbbe)
C           -7.86133845680177        0.48739483728953        0.13122238930642
C           -7.27620720368740        1.19472335606037        1.19275352003824
C           -5.91861779643686        1.19990919731713        1.35586964132110
C           -5.08184761020485        0.49473514914826        0.46208318427123
C           -3.68301825743958        0.49019383991348        0.59847433706231
C           -2.87069194383381       -0.21289434716580       -0.27295540398505
C           -1.42021071983220       -0.20799807400968       -0.13226053683614
C           -0.71133236861073       -1.44516484540389       -0.03779649984359
C           -1.37896145434829       -2.67267874395541        0.02259389847057
C           -0.68438163563231       -3.88000457282991        0.02711143966986
C            0.69304445394729       -3.87824333764389       -0.03767994449321
C            1.38468810857053       -2.66920965384612       -0.03134898568359
C            0.71417268875866       -1.44341932666300        0.03117134293189
C            1.42029871116495       -0.20460354545451        0.12758465135024
C            2.87023807536499       -0.20750511741612        0.27231599317177
C            3.47820550105644       -0.93697326973301        1.32570493701071
C            4.82989383190693       -0.93284205336376        1.49686198460415
C            5.67622739717602       -0.22175734448794        0.61485476163344
C            7.07568891075341       -0.20572452487664        0.75998945207140
C            7.86224395401732        0.49295317641233       -0.11728895637168
C            7.27974371015508        1.20493588902657       -1.17713013017837
C            5.92248728267515        1.21160659662287       -1.34312969583261
C            5.08335440722023        0.50323154225789       -0.45408073412080
C            3.68488454281731        0.49895644166943       -0.59434216177258
C            0.70656318613108        1.03368447205713        0.09018170724937
C            1.35253404762250        2.26187618880548        0.26278136399380
C            0.66859683110245        3.46946500630269        0.14426531381545
C           -0.67780587244331        3.46760924646078       -0.15291167635275
C           -1.35859113930400        2.25813229352511       -0.26985563305556
C           -0.70923600450672        1.03184806254406       -0.09635577370801
C           -3.48114874021736       -0.93917912420147       -1.32696570275720
C           -4.83332215408687       -0.93431394702103       -1.49466796946673
C           -5.67734598775432       -0.22604673132846       -0.60822466323040
C           -7.07713821140433       -0.20845067908746       -0.75035982946838
H           -8.93566684038154        0.49542902579955        0.01629358158715
H           -7.90960326433948        1.73625855321381        1.88087799817564
H           -5.46322372257697        1.74578257828385        2.17036652707914
H           -3.23974076720691        1.02328017075737        1.42831746253548
H           -2.45707691599950       -2.68907903774455        0.06919694297429
H           -1.23226402906492       -4.81006177421222        0.06510100425250
H            1.24328110633703       -4.80685431747953       -0.07699541589272
H            2.46282481504536       -2.68307290607570       -0.07830515742531
H            2.84191628407733       -1.46626900371123        2.02052943197976
H            5.27686916574656       -1.47265773444378        2.32023887902589
H            7.52052419931873       -0.75741953399379        1.57653757980404
H            8.93634918904804        0.49958609246934       -0.00018772804902
H            7.91490570210107        1.74880212198518       -1.86178239539639
H            5.46922309290603        1.76098959946308       -2.15645735880744
H            3.24400855479365        1.03422076373599       -1.42405606505466
H            2.40526037071348        2.27878788872745        0.50012702298294
H            1.20240197998921        4.39938686593582        0.27398790818491
H           -1.21401719618231        4.39598091629030       -0.28381445807389
H           -2.41153568306442        2.27190409651275       -0.50647638027789
H           -2.84655594563544       -1.46623054224159       -2.02505933237766
H           -5.28244968842445       -1.47127917866111       -2.31873704409886
H           -7.52407431186695       -0.75660896999520       -1.56813512631802
