56
 energy: -84.061095087032 gnorm: 0.000064912080 xtb: 6.7.1 (edcfbbe)
C           -7.88188821717306        0.23275654178916        0.12379792420058
C           -7.34795518970088        0.60535875465960        1.36817419770877
C           -5.99535179615663        0.61529147072844        1.56471168564883
C           -5.11305306459970        0.25291090164144        0.52448253927905
C           -3.71380894651025        0.25662509472518        0.69524255473538
C           -2.87152855612171       -0.10101907653123       -0.32777716958845
C           -1.40263198315158       -0.09582386238925       -0.14675770303094
C           -0.71089019018254       -1.31144915358291       -0.05072303568140
C           -1.38726536703016       -2.55976078071187       -0.08580110715264
C           -0.70509184158564       -3.73492532084059       -0.00809901689832
C            0.70007195091295       -3.73500549191773        0.10629771727261
C            1.38468619327120       -2.55987915967136        0.15955159490171
C            0.71087765536237       -1.31105129479672        0.10066977486031
C            1.40452075909370       -0.09457118051725        0.17161528852037
C            2.87482789824931       -0.09726629940052        0.33968008722551
C            3.43536048730336       -0.47077490028174        1.58037647683843
C            4.78861562372131       -0.47624133663128        1.76108361462746
C            5.66162531999256       -0.11440369172594        0.71272294072655
C            7.06367227954395       -0.11081550454514        0.86669919101656
C            7.87919257751428        0.24658920622691       -0.17072748252979
C            7.33002788420558        0.61634233599440       -1.40933691425860
C            5.97523203047292        0.62271518313952       -1.59024584775450
C            5.10594117186237        0.25974580096696       -0.53928105297270
C            3.70488694182012        0.25999028254200       -0.69369540538510
C            0.71141886875370        1.12148060636904        0.08849272365301
C            1.37950146234220        2.37122677558720        0.18432806095410
C            0.69906864713438        3.54583315359820        0.08652366779506
C           -0.69567821640222        3.54466673428556       -0.11846509905530
C           -1.37656313763465        2.36900515851998       -0.19803097102336
C           -0.70881065565191        1.12070610474245       -0.08271355241749
C           -3.41666893174958       -0.47820061847918       -1.57416765848008
C           -4.76761538433514       -0.48651526309324       -1.77082433245774
C           -5.65337548493111       -0.12449059741285       -0.73326973385229
C           -7.05353289001615       -0.12418146459614       -0.90358524618305
H           -8.95374180720199        0.23095667920869       -0.01356711680576
H           -8.01737833202244        0.88425214982299        2.16939100842252
H           -5.57953031149141        0.90220719563031        2.52053442787382
H           -3.30468513893069        0.54378662895468        1.65436147539587
H           -2.46384460858363       -2.55951285115890       -0.17462595444755
H           -1.23425712516875       -4.67658522380753       -0.03580228515742
H            1.22744191730965       -4.67691478239727        0.15315268583921
H            2.46132177363738       -2.56044245180625        0.24721730380059
H            2.77174396945799       -0.74697972664729        2.38757767611190
H            5.21153566333386       -0.75980418074569        2.71484261849092
H            7.48149148953999       -0.39652834551845        1.82208527947802
H            8.95257939927348        0.24747292119993       -0.04580949025819
H            7.98951608411033        0.89608316193354       -2.21845838289560
H            5.54763853287279        0.90738083740613       -2.54155377600307
H            3.28414760477015        0.54412206518433       -1.64871502422326
H            2.44835286866838        2.37275733459855        0.33985014200678
H            1.22256579936345        4.48807011316255        0.16164825590561
H           -1.21866838307771        4.48592465099958       -0.20797576325543
H           -2.44562737919167        2.36818738879290       -0.35235816359538
H           -2.74242150111166       -0.75515297136993       -2.37227768037966
H           -5.17887100304976       -0.77269064518854       -2.72886938763683
H           -7.45959321773413       -0.41203307912065       -1.86338699344584
