53
 energy: -90.739114685424 gnorm: 0.000055325966 xtb: 6.7.1 (edcfbbe)
O            3.96096407792072        0.50327255397062        2.27232533434228
C            3.17254206258575        0.29398814315567        1.36831577357126
C            1.71555489445483        0.27090419423574        1.55776824413297
C            1.18837501202949        0.47299323577654        2.81843510700075
C           -0.19286093635873        0.44343609040979        3.01741040982185
C           -1.04322149458609        0.23314579630443        1.96156527738631
C           -0.54420322757121        0.03976315913235        0.65726378150376
C           -1.38651930950103       -0.18493651732312       -0.46800661900905
N           -2.78830066929723       -0.17079239114640       -0.28185992305511
C           -3.37741508048407        1.08258819199133       -0.07562041806953
C           -2.64404152734611        2.24077577631659       -0.34300110487881
C           -3.17868272053616        3.49829932341407       -0.13094035313826
C           -4.47632860114131        3.63765853314857        0.32799238600483
C           -5.23257281605478        2.50339377145470        0.55989393593553
C           -4.69159177335922        1.24142676897670        0.36682973404003
S           -5.73310907050778       -0.14388824548922        0.72597089840417
C           -4.87847349284203       -1.43173610321398       -0.14196710970314
C           -5.60522906398060       -2.58647762032585       -0.38763352484387
C           -4.99966125837968       -3.69842174857822       -0.94338141586018
C           -3.64707391194970       -3.64970387981402       -1.22638566161222
C           -2.92427777459389       -2.49163945733114       -1.00201515889376
C           -3.52608081174141       -1.34213753613015       -0.48680767740434
C           -0.83648873332021       -0.39694639671099       -1.71720519498532
C            0.54364767818121       -0.39426396492878       -1.89901011894584
C            1.39281314999130       -0.17605901588130       -0.82997879578293
C            0.86088219519583        0.04493623888264        0.45801050548295
C            2.84400191048411       -0.17576620686516       -1.04373112092550
O            3.36184668902162       -0.37928315230891       -2.12732500581774
N            3.62624606433920        0.06441140927666        0.07756984531469
C            5.05097375447234        0.06810604469490       -0.11683637751328
C            5.80732384670354       -0.99515361200014        0.34924166686509
C            7.17879455496360       -0.98657853802051        0.16380769279437
C            7.78600525054477        0.07340360048922       -0.48846886703519
C            7.02258422004450        1.13032283471103       -0.95510761130301
C            5.65133437613297        1.13382972918682       -0.76739132652599
H            1.86662060990772        0.64649077910167        3.64049021563008
H           -0.58914166218576        0.58791637968391        4.01042662418336
H           -2.10953634378364        0.21162500079258        2.12560078071259
H           -1.63730059774668        2.15448739166581       -0.72091472007426
H           -2.57509656998074        4.36909581387854       -0.33620366306164
H           -4.90143361385059        4.61463122024299        0.49569058601750
H           -6.25207259817024        2.57921167664921        0.90658581284999
H           -6.64991197998277       -2.60425933187142       -0.11577274762518
H           -5.57355378334148       -4.59245336474790       -1.12917974966070
H           -3.14099612466461       -4.51546782010061       -1.62547914730718
H           -1.86822648706258       -2.49225265590187       -1.21666324703370
H           -1.48676533374544       -0.54289328622284       -2.56686180549841
H            0.97094256791696       -0.54715268734267       -2.87857676947135
H            5.32235358308033       -1.81667494267027        0.85595660873886
H            7.77152587169215       -1.81198104863167        0.52837071586182
H            8.85581085867375        0.07555977267505       -0.63340455430014
H            7.49331479685305        1.95795266122508       -1.46407122976370
H            5.04571034286693        1.95329243211274       -1.12572191749546
