53
 energy: -90.684952905483 gnorm: 0.000134199525 xtb: 6.7.1 (edcfbbe)
O            4.15276994935012       -1.06282683509072        1.96334215267325
C            3.33925555721564       -0.59933669118388        1.15855213795215
C            1.90525634067429       -0.71127506625687        1.31056894354325
C            1.37413863179332       -1.35635628224198        2.44158900889158
C            0.01147599471270       -1.45778264154145        2.60506007001444
C           -0.85873596245467       -0.93780500352517        1.65408890316038
C           -0.36630758005838       -0.30232633042897        0.50446379742399
C           -1.20195831002907        0.26264343404677       -0.49514574433171
N           -2.61820417612236        0.15025921383392       -0.38840192947599
C           -3.32146182387115        1.28592596858104       -0.04958306413118
C           -2.62347267548842        2.46315785156593        0.27693793819499
C           -3.28483267195788        3.62904276440798        0.58487352757735
C           -4.67703561529670        3.67322378013834        0.59337761426643
C           -5.38761689287630        2.52532824566143        0.32146810129215
C           -4.72755620616280        1.33739079204003        0.01200613974944
S           -5.74542282164942       -0.05918968561002       -0.25127681111841
C           -4.57568492426836       -1.31392492088173       -0.58986979176777
C           -5.09834691279361       -2.58169126631908       -0.84198057977475
C           -4.26840440364415       -3.63086255761108       -1.16770837799665
C           -2.89729551328805       -3.40665233733371       -1.26901198756601
C           -2.37172810225083       -2.15966734112492       -1.02328943574950
C           -3.18953307345864       -1.07779753624323       -0.65070324967174
C           -0.66547260873877        0.93637919208221       -1.59962440445480
C            0.69181092028674        1.03779834190535       -1.75908787256095
C            1.56564166119802        0.48539694960339       -0.79728469993563
C            1.04271994803023       -0.17779287098777        0.33274255637634
C            2.99046418238095        0.61593996437270       -0.97607364242152
O            3.51484984969514        1.19326855412846       -1.93495245068777
N            3.78682431624695        0.05745276664021        0.01928048422361
C            5.20383832966592        0.17453541576076       -0.14417827738692
C            5.85074393245657       -0.58038480449052       -1.11018423483780
C            7.22096637436435       -0.46529315638102       -1.26465176617496
C            7.94318174287348        0.39301737113437       -0.45293599472014
C            7.29294182910286        1.14312242437386        0.51231289610660
C            5.92182172026760        1.03974710547691        0.66667811215168
H            2.06682308413418       -1.75864552986647        3.16512743263019
H           -0.39032318220952       -1.95076531405434        3.47809998305900
H           -1.92343607437572       -1.02941689159244        1.80733380872850
H           -1.54624658637355        2.44164928275295        0.29077947469445
H           -2.71333348975289        4.51101553458361        0.82741460691778
H           -5.19429039355415        4.58935842168107        0.82821286812727
H           -6.46620929896241        2.52213463267410        0.34818493284870
H           -6.16684694712306       -2.71859289036881       -0.77969329944157
H           -4.67844367293961       -4.60968787327034       -1.35689205606834
H           -2.23583217232299       -4.21168717675580       -1.54776821447717
H           -1.31053931547641       -2.00169890851830       -1.11919116837375
H           -1.33711254273180        1.34613715470292       -2.33965569952809
H            1.12789935516628        1.53110631259875       -2.61338107468384
H            5.27676938642843       -1.24730157946714       -1.73741890265448
H            7.72397264197020       -1.05199939771073       -2.01921279248707
H            9.01311598880772        0.47745670786802       -0.57244653870989
H            7.85217088477273        1.81399304838982        1.14775361757411
H            5.40338680226389        1.61906643433109        1.41725515705717
