53
 energy: -90.739181336181 gnorm: 0.000050691344 xtb: 6.7.1 (edcfbbe)
O            4.16401153169313       -1.15256629627149        1.93703124817493
C            3.36967848626018       -0.66160262498252        1.15574468207265
C            1.91230160522124       -0.75885943256850        1.31774092305944
C            1.38965281467979       -1.42275744241636        2.41042129020181
C            0.00751271471970       -1.51692630161699        2.58329687895969
C           -0.84753784207702       -0.96531355779862        1.66327920808806
C           -0.35210489086754       -0.28994047361218        0.52905698161769
C           -1.19885817635758        0.30807616472065       -0.44552337067394
N           -2.60162689050402        0.19224164095406       -0.29600597317314
C           -3.35568430233608        1.33829099157591       -0.02243550754102
C           -2.75597024637479        2.59892835395931        0.00361579448445
C           -3.48626762862735        3.74488586067151        0.26321826261860
C           -4.84568221407260        3.67014039642309        0.50404289134826
C           -5.45214286949480        2.42761130563134        0.52274729979646
C           -4.71878168550933        1.27575000463832        0.28286040380204
S           -5.58923213164858       -0.25361087677774        0.49336454047168
C           -4.48735073823781       -1.38399996778141       -0.30746881855599
C           -4.99794608037990       -2.63337475615804       -0.62516022983550
C           -4.20155372598035       -3.58934204685451       -1.22869640806597
C           -2.89158908766105       -3.27235634521810       -1.53988324366783
C           -2.38591896822383       -2.02041996597476       -1.24086720887108
C           -3.16240623255170       -1.05379657494401       -0.59772353910935
C           -0.65580400904371        0.98291473091890       -1.52092009856985
C            0.72412227689527        1.08467141033063       -1.67561343287732
C            1.57828651707832        0.51436061768760       -0.75017599222046
C            1.05261664168747       -0.17678603305172        0.36201821626417
C            3.02950048548046        0.63422974898950       -0.93048540321487
O            3.54301757463461        1.22798870341997       -1.86174035957851
N            3.81658142705556        0.02996070682860        0.03947636390503
C            5.24159477787489        0.13530539350687       -0.12635736496663
C            5.88045331111157       -0.64850339936763       -1.07331579493247
C            7.25191043394194       -0.54453866322353       -1.22834105101796
C            7.97681716315642        0.33158260144105       -0.43804504856424
C            7.33087263984261        1.11067430167002        0.50714578579036
C            5.95902426671565        1.01752412715913        0.66500296720008
H            2.07168621641648       -1.85970277903769        3.12445878129560
H           -0.38521384322287       -2.02790840687506        3.44857453179335
H           -1.91464664608968       -1.04298186218157        1.80446081163708
H           -1.69530365786153        2.68960067579947       -0.16459029752172
H           -2.98031941592617        4.69819189430254        0.27623964753731
H           -5.42525813227579        4.55920148888180        0.69585902979626
H           -6.50435034169412        2.32997434397998        0.74408298153716
H           -6.02762793574638       -2.84545917513564       -0.37949908730635
H           -4.60490106701851       -4.56274717241619       -1.45888330646836
H           -2.25479570014094       -3.99555519253164       -2.02589964293493
H           -1.36745463123891       -1.78847288778965       -1.51005541284627
H           -1.31119517854540        1.42017235890440       -2.25947548728589
H            1.14735555137739        1.59924525551856       -2.52509144663945
H            5.30459720846840       -1.32894867051678       -1.68343244073246
H            7.75276215858794       -1.15271552833886       -1.96648111956202
H            9.04687003928177        0.40785871165252       -0.55923113394859
H            7.89332628160722        1.79503314038874        1.12425820532924
H            5.44413247805228        1.61961740739649        1.39933849681467
