  53
        -90.63716651
 O          4.1889876732       -1.1944881406        1.8889904840
 C          3.3754897683       -0.6864708874        1.1216649291
 C          1.9383011881       -0.7917239947        1.3003078286
 C          1.4269829382       -1.4705614232        2.4228266606
 C          0.0699881963       -1.5603588554        2.6153573713
 C         -0.8185507626       -1.0025521156        1.6976330499
 C         -0.3460032105       -0.3393502903        0.5575906102
 C         -1.1963246810        0.2697742711       -0.4027833831
 N         -2.6070156970        0.1657410366       -0.2753981584
 C         -3.3051059087        1.3110285281        0.0537626658
 C         -2.5987844123        2.4891146086        0.3494962971
 C         -3.2500881841        3.6655249899        0.6437712159
 C         -4.6388417778        3.7158317542        0.6714954559
 C         -5.3563173229        2.5622517232        0.4366864054
 C         -4.7058948382        1.3686023415        0.1404063896
 S         -5.7365515604       -0.0368879994       -0.0623097670
 C         -4.5697638136       -1.3021369338       -0.4032214972
 C         -5.0977706692       -2.5722450177       -0.6176105465
 C         -4.2777444391       -3.6280221483       -0.9524123291
 C         -2.9145968899       -3.4026022884       -1.1064732538
 C         -2.3847175529       -2.1498978212       -0.8958785204
 C         -3.1899525570       -1.0669925762       -0.5066064391
 C         -0.6717361731        0.9853473817       -1.4932522470
 C          0.6793493605        1.0790218990       -1.6769424668
 C          1.5670247342        0.4770395977       -0.7532863756
 C          1.0598808242       -0.2215341699        0.3601259740
 C          2.9935516869        0.6060168900       -0.9590279748
 O          3.4894388734        1.2198677769       -1.9021655930
 N          3.8055799751        0.0091864226       -0.0002476244
 C          5.2182057400        0.1329583797       -0.1806713146
 C          5.9607306500        0.8938531348        0.7095372854
 C          7.3283893933        1.0074168436        0.5366874540
 C          7.9509225760        0.3719786593       -0.5246899473
 C          7.2042379717       -0.3826256343       -1.4137082999
 C          5.8372441199       -0.5080654178       -1.2428071133
 H          2.1304493751       -1.9050801702        3.1144706256
 H         -0.3215036923       -2.0747134108        3.4803677175
 H         -1.8812216434       -1.0886687762        1.8719120488
 H         -1.5217114724        2.4612418419        0.3520449517
 H         -2.6704802836        4.5492137209        0.8606908706
 H         -5.1513385507        4.6372481498        0.8962130597
 H         -6.4348522939        2.5602578836        0.4839385731
 H         -6.1643730144       -2.7068690401       -0.5205032038
 H         -4.6941012534       -4.6098267608       -1.1103053243
 H         -2.2605101042       -4.2089983465       -1.3988123655
 H         -1.3288620191       -1.9890336455       -1.0347662504
 H         -1.3590445886        1.4250557136       -2.2017310303
 H          1.1043482079        1.5969516442       -2.5208188948
 H          5.4657220938        1.3851317310        1.5335780816
 H          7.9078351674        1.5972509221        1.2316244876
 H          9.0185430000        0.4646883687       -0.6585626493
 H          7.6873160984       -0.8800147621       -2.2418729152
 H          5.2464310125       -1.0940498983       -1.9304531250
