40
 energy: -69.234208675670 gnorm: 0.000020092575 xtb: 6.7.1 (edcfbbe)
C            4.49763494018792        2.41457678763473       -0.00002113506669
C            3.08994029463864        2.39333455552716       -0.00001590558535
C            2.45839398708768        1.17538472255773       -0.00001084971572
C            3.24579314539328       -0.00001448720149       -0.00001118971483
C            2.45838267255215       -1.17540602190646       -0.00000571463263
C            3.08991657143007       -2.39336228694067       -0.00000529209593
C            4.49761094793792       -2.41461868509455       -0.00001059730052
C            5.26039986647942       -1.27125666757281       -0.00001587465018
C            4.64224253711488       -0.00002161954457       -0.00001631955337
C            5.26041258768116        1.27120723846264       -0.00002138947323
C            1.07664700109004       -0.71865652528260       -0.00000166053056
N           -0.03099369251424       -1.41801087120301        0.00000337464818
C           -1.17373440229462       -0.70611016014585        0.00000590595594
C           -2.42271096562343       -1.42347395166421        0.00001095398512
C           -2.46276423920170       -2.82342199130878        0.00001373157229
C           -3.68403448584106       -3.45641202764744        0.00001863614125
C           -4.83726076193786       -2.66712660909710        0.00002034976890
N           -4.82313694260352       -1.35694646287505        0.00001790780908
C           -3.64834268705346       -0.72482068619526        0.00001347265843
C           -3.64833636453189        0.72485389957600        0.00001168836656
N           -4.82312532090235        1.35698945254110        0.00001437898811
C           -4.83723835558031        2.66716971851245        0.00001224574943
C           -3.68400548901898        3.45644547016596        0.00000820007670
C           -2.46274049545345        2.82344526190035        0.00000470556780
C           -2.42269865715191        1.42349689909673        0.00000671176001
C           -1.17372803700786        0.70612255954245        0.00000354000738
N           -0.03098079597634        1.41801293441019       -0.00000192860113
C            1.07665369448519        0.71864858479127       -0.00000465989698
H            4.99299741387924        3.37503563299634       -0.00002497488364
H            2.53182501679774        3.31684205840558       -0.00001575681999
H            2.53179174154549       -3.31686402848152       -0.00000108416984
H            4.99296383053631       -3.37508246729877       -0.00000994975044
H            6.33888636714281       -1.33781942277494       -0.00001965118625
H            6.33889975614233        1.33775924127165       -0.00002565423176
H           -1.53113110508198       -3.36866764439705        0.00001165307621
H           -3.75714865794965       -4.53309943388319        0.00001975824479
H           -5.81954520182856       -3.12236177203656        0.00002317833187
H           -5.81951906744335        3.12241293897841        0.00001557025923
H           -3.75711070029310        4.53313347724658        0.00000673667463
H           -1.53110294681346        3.36868338892584        0.00000088820492
