40
 energy: -69.180241875634 gnorm: 0.000049431411 xtb: 6.7.1 (edcfbbe)
C            4.72685850707444        2.42196057871348        0.00451858121433
C            3.33396445044516        2.41292958033780        0.00424455632840
C            2.68979055359744        1.17727198831125        0.00479065256558
C            3.47575039093359       -0.00032278209720        0.00555968563646
C            2.68940523903687       -1.17764432051209        0.00575824760087
C            3.33309713944663       -2.41354865215851        0.00669314570758
C            4.72598832964243       -2.42309362227402        0.00733102481843
C            5.49193807202633       -1.27013177599325        0.00694429050713
C            4.87526586434426       -0.00058382734785        0.00598885014088
C            5.49240624867430        1.26873420408880        0.00539873866889
C            1.33493809465986       -0.76115590033430        0.00486620710466
N            0.19512082903442       -1.35992239148397        0.00396259070084
C           -0.96154959816040       -0.72688496876161        0.00297870739024
C           -2.20334384506877       -1.42423464858494        0.00116626913920
C           -2.25350466745234       -2.82819809858953        0.00071174893340
C           -3.47729277547690       -3.45540679039815       -0.00169872707470
C           -4.62997188284345       -2.66780962296939       -0.00371853877941
N           -4.60272175441183       -1.35455130436179       -0.00299231719406
C           -3.43403360061722       -0.72657157838667       -0.00049732662398
C           -3.43384659636511        0.72784155160892        0.00075298210787
N           -4.60240140478983        1.35607414652766       -0.00017034728081
C           -4.62937685119554        2.66934360083373        0.00137399415615
C           -3.47653259685034        3.45668557147138        0.00426404549877
C           -2.25287076256847        2.82920666101234        0.00499164250971
C           -2.20299412752669        1.42523668230579        0.00302686334228
C           -0.96132474167599        0.72760393955019        0.00339819447924
N            0.19551702952318        1.36031379785945        0.00408316788040
C            1.33519055540159        0.76124683606397        0.00453726767454
H            5.23130435656989        3.37815699732237        0.00393838848831
H            2.77397270653266        3.33488555553028        0.00351656635000
H            2.77274318824406       -3.33528513243049        0.00692222405046
H            5.23008703247418       -3.37947186909542        0.00809226560599
H            6.56973144952766       -1.33869165432552        0.00739954071507
H            6.57022601784763        1.33690306517787        0.00558570243378
H           -1.32460913648248       -3.37985047515826        0.00217192994479
H           -3.55107712188653       -4.53171638968108       -0.00208721079344
H           -5.61392745995428       -3.11672902595044       -0.00584428247104
H           -5.61323473049017        3.11846311732086        0.00060298883676
H           -3.55008382891702        4.53301035719971        0.00593252256294
H           -1.32387360667641        3.38068179164480        0.00705740688074
