40
 energy: -69.180241962351 gnorm: 0.000058440017 xtb: 6.7.1 (edcfbbe)
C            4.72757093454340        2.42221496474272       -0.00411768865928
C            3.33467926061447        2.41303386118365       -0.00265536921581
C            2.69065118473078        1.17730400250745       -0.00176041193773
C            3.47671021102659       -0.00021198570744       -0.00224677997537
C            2.69045775520667       -1.17761246434743       -0.00138452867307
C            3.33431190725219       -2.41344465096212       -0.00183919932874
C            4.72720281549106       -2.42283304318526       -0.00326352247605
C            5.49304154324312       -1.26979946571716       -0.00424591999169
C            4.87622150173261       -0.00032031866844       -0.00374740967768
C            5.49322771434484        1.26906194974677       -0.00470019211009
C            1.33596186416319       -0.76126641705061       -0.00049440346737
N            0.19613958541119       -1.36007563816672       -0.00016305922628
C           -0.96055821628356       -0.72711239940860       -0.00012543484789
C           -2.20234676737893       -1.42452035850182       -0.00038384632980
C           -2.25251055374551       -2.82847364054220       -0.00023529550879
C           -3.47630769705003       -3.45569692557394       -0.00093729320094
C           -4.62899357857637       -2.66811969492484       -0.00177949527370
N           -4.60174068448644       -1.35485820989328       -0.00178772472184
C           -3.43305683703967       -0.72687322252734       -0.00108087528323
C           -3.43293711391677        0.72753711417718       -0.00110349409445
N           -4.60152073564835        1.35570837930953       -0.00174646204687
C           -4.62855950883673        2.66897875811125       -0.00178049471885
C           -3.47574067498497        3.45636870898944       -0.00106872958437
C           -2.25204688733373        2.82895296554787       -0.00043581866837
C           -2.20210431940397        1.42498220689493       -0.00051491403919
C           -0.96044726860888        0.72737405800040       -0.00025306326939
N            0.19638702030800        1.36014551235129       -0.00047104640620
C            1.33607339262467        0.76116221107791       -0.00070796801888
H            5.23191299790663        3.37846645666247       -0.00488760356238
H            2.77458607240981        3.33492987562046       -0.00229030292246
H            2.77408272667037       -3.33525585355058       -0.00115991043716
H            5.23139767416519       -3.37916187832100       -0.00367560396594
H            6.57084145149656       -1.33823962826102       -0.00544466849504
H            6.57103956345656        1.33733670671881       -0.00594006452864
H           -1.32364064098558       -3.38017344641845        0.00038325801386
H           -3.55007054638269       -4.53200900362866       -0.00087795829251
H           -5.61296170986780       -3.11702017920926       -0.00247326177762
H           -5.61245366162307        3.11803855328974       -0.00239851131256
H           -3.54933139804790        4.53269250202237       -0.00104388394275
H           -1.32309016874019        3.38050495696275        0.00009400920376
