  40
        -69.17634787
 C          4.7242844108        2.4222141304       -0.0106052111
 C          3.3309229590        2.4116215800       -0.0278231226
 C          2.6889612918        1.1762971073       -0.0232953621
 C          3.4754102576       -0.0004801830       -0.0038913467
 C          2.6894555332       -1.1779306939       -0.0013854540
 C          3.3329550999       -2.4124731350        0.0216379208
 C          4.7263425055       -2.4215405864        0.0425730773
 C          5.4917231570       -1.2688540117        0.0402609651
 C          4.8746806861        0.0003232730        0.0160613896
 C          5.4905679204        1.2701881997        0.0117421314
 C          1.3332728965       -0.7597472476       -0.0181962073
 N          0.1958099136       -1.3644507166       -0.0179132324
 C         -0.9611901372       -0.7284134831       -0.0200603803
 C         -2.2019477203       -1.4244216193       -0.0148041325
 C         -2.2548358485       -2.8290604265       -0.0232847057
 C         -3.4784238078       -3.4555841560       -0.0145067115
 C         -4.6311432211       -2.6684781130        0.0030533344
 N         -4.6000845713       -1.3550836106        0.0102081059
 C         -3.4333026845       -0.7269090704        0.0015653116
 C         -3.4326763982        0.7279994296        0.0099086360
 N         -4.5985834317        1.3579504724        0.0351819591
 C         -4.6274621293        2.6713716233        0.0429026703
 C         -3.4734753981        3.4568659406        0.0223565832
 C         -2.2508918261        2.8286220692       -0.0033971968
 C         -2.2004987505        1.4238510899       -0.0077600247
 C         -0.9610141893        0.7263441576       -0.0227397567
 N          0.1962103186        1.3621464170       -0.0301731854
 C          1.3331016787        0.7570905457       -0.0291809807
 H          5.2272455790        3.3788109624       -0.0138045198
 H          2.7701040632        3.3329352369       -0.0436901942
 H          2.7734127898       -3.3347328295        0.0249136261
 H          5.2303629214       -3.3777858672        0.0623545550
 H          6.5694610200       -1.3368300314        0.0582016549
 H          6.5677534795        1.3390706894        0.0265118461
 H         -1.3254229247       -3.3796900270       -0.0368332318
 H         -3.5531819453       -4.5317543876       -0.0209712033
 H         -5.6151195103       -3.1157468728        0.0111632022
 H         -5.6109836002        3.1202772383        0.0662611637
 H         -3.5465389046        4.5331499211        0.0277741124
 H         -1.3205370012        3.3776287816       -0.0187326144
