  96
       -152.95398087
 C          5.2993837233       -5.0822595507       -1.0120860399
 C          5.8474676183       -4.6070072834        0.1678420258
 C          5.5968407036       -3.3147123364        0.5862364616
 C          4.7952821852       -2.4696230338       -0.1808373687
 N          4.5247248849       -1.1666599268        0.2510508679
 C          5.5208224824       -0.4220777517        0.8934270643
 C          5.2034785269        0.4216035105        1.9583459107
 C          6.1863413848        1.1762039590        2.5668359887
 C          7.5010910192        1.0940145310        2.1383710879
 C          7.8252635912        0.2458300231        1.0925401795
 C          6.8467543465       -0.5041882924        0.4695160507
 C          3.2593640434       -0.6083195544        0.0473318745
 C          3.1335691989        0.7601051182       -0.1593101128
 C          1.8717710460        1.3291475177       -0.3108886482
 C          0.7192965296        0.5193118516       -0.3395341100
 C          0.8782542116       -0.8704018347       -0.1847839470
 C          2.1316063344       -1.4236196244        0.0508268851
 N         -0.2333345639       -1.6895202437       -0.2640687292
 C          0.0201580056       -3.0908022209       -0.3384813086
 C         -0.0887182861       -3.8933490074        0.7903335928
 C          0.2084227934       -5.2417527849        0.7060720722
 C          0.6187159100       -5.7905694036       -0.4977401394
 C          0.7261319139       -4.9903153337       -1.6224890471
 C          0.4272349320       -3.6418133749       -1.5461964404
 C         -1.5325509916       -1.2327130616       -0.2292786882
 C         -2.5671008174       -2.1767020950       -0.1853956716
 C         -3.8756577901       -1.7666365162       -0.0360237458
 C         -4.2037173271       -0.4080151311        0.1205655069
 C         -3.1548137042        0.5146724072        0.0225783895
 C         -1.8182689885        0.1545529340       -0.2351098602
 B         -0.6563191348        1.1295131738       -0.5208368583
 C         -0.6330256128        2.6018662549       -0.9889819423
 C         -1.7117905231        3.2793406102       -1.5694714086
 C         -1.6590055464        4.6153543589       -1.8970700277
 C         -0.5011112179        5.3355023646       -1.6306163175
 C          0.6059243601        4.6960402811       -1.1221019609
 C          0.5758795771        3.3219069068       -0.8480352268
 N          1.7439623625        2.6950856067       -0.4464943971
 C          2.9184000704        3.4687763013       -0.2158493618
 C          3.6944958953        3.9159212757       -1.2781804233
 C          4.8588975157        4.6202975617       -1.0307138869
 C          5.2553768081        4.8745982980        0.2718009400
 C          4.4810504172        4.4305531821        1.3301464550
 C          3.3129436482        3.7298184604        1.0897386848
 O         -3.3940104247        1.8278753803        0.2231220041
 C         -4.6418186999        2.3361460763        0.3766808397
 C         -4.6765212090        3.7316909867        0.4710253078
 C         -5.8804069338        4.3846366845        0.5886898574
 C         -7.0629745220        3.6520705092        0.6031244786
 C         -7.0218468891        2.2783601220        0.5238232068
 C         -5.8188953998        1.5645661035        0.4269753522
 B         -5.6382711192        0.0277308896        0.3698261025
 C         -6.6308606751       -1.1569006849        0.5146467573
 C         -7.9856175629       -1.0779121874        0.8632725259
 C         -8.8001218324       -2.1864969556        0.9351918141
 C         -8.2820936182       -3.4454565163        0.6565664648
 C         -6.9508514342       -3.5766388508        0.3350719013
 C         -6.1271848964       -2.4496870654        0.2759965043
 O         -4.8265118265       -2.7309232426       -0.0134805085
 C          4.2605258004       -2.9487777125       -1.3771855199
 C          4.5064919674       -4.2458989450       -1.7806829401
 H          5.4908576271       -6.0954923775       -1.3312170775
 H          6.4670681961       -5.2512846891        0.7743648571
 H          6.0147943350       -2.9512742808        1.5137651730
 H          4.1813150876        0.4799667941        2.3015246444
 H          5.9249175625        1.8265900600        3.3886057899
 H          8.2674628130        1.6843281072        2.6173183847
 H          8.8476659740        0.1744570926        0.7513301483
 H          7.1006175011       -1.1555896214       -0.3540547342
 H          4.0235253568        1.3674451750       -0.1996422634
 H          2.2465431103       -2.4786791274        0.2403009110
 H         -0.4023475012       -3.4530022971        1.7252554311
 H          0.1248099250       -5.8644441034        1.5842900424
 H          0.8550898763       -6.8421374190       -0.5583606889
 H          1.0435845890       -5.4173005793       -2.5619011353
 H          0.5119151496       -3.0058232868       -2.4148032479
 H         -2.3641609687       -3.2330236540       -0.2527347036
 H         -2.6138468560        2.7259734844       -1.7753946951
 H         -2.5133044448        5.1048416671       -2.3417068593
 H         -0.4569681235        6.3947134260       -1.8402406463
 H          1.5091311555        5.2616075065       -0.9469834208
 H          3.3806526082        3.7033550113       -2.2895899255
 H          5.4620316848        4.9654637522       -1.8572596094
 H          6.1688073402        5.4178468763        0.4612307741
 H          4.7882958972        4.6294920749        2.3458033322
 H          2.7036447595        3.3726065279        1.9066104925
 H         -3.7403054934        4.2675653523        0.4345164053
 H         -5.9071372006        5.4620665436        0.6587359582
 H         -8.0118652061        4.1631007042        0.6765573554
 H         -7.9516685470        1.7323495120        0.5203808006
 H         -8.4049981410       -0.1124154094        1.0966133952
 H         -9.8403319088       -2.0793815792        1.2058877723
 H         -8.9161654965       -4.3185483194        0.7015419446
 H         -6.5127806297       -4.5421484090        0.1322159929
 H          3.6513117883       -2.2959633991       -1.9844133501
 H          4.0832038758       -4.6034665951       -2.7078372568
