  68
       -100.03018791
 O          3.5677973745        0.7210202134       -2.5333738607
 P          3.1435203742        0.1260030995       -1.2555180926
 C          4.3234365620       -1.1126263689       -0.6117901341
 C          4.3068441305       -2.3793945365       -1.1787988272
 C          5.2317200872       -3.3276119834       -0.7817490069
 C          6.1779791819       -3.0074194604        0.1793743908
 C          6.2026012022       -1.7396148463        0.7370688265
 C          5.2771769119       -0.7893170617        0.3406030279
 C          2.9444855097        1.3548104134        0.0798195050
 C          3.1118699300        2.6952101713       -0.2381710226
 C          2.9256330708        3.6642669334        0.7303628345
 C          2.5523279933        3.2967097914        2.0128952032
 C          2.3649343747        1.9585228953        2.3262135226
 C          2.5551652785        0.9879267101        1.3630005904
 C          1.5315000352       -0.6541023273       -1.2649389726
 C          1.1369947638       -1.5885873713       -0.2735212636
 C         -0.1539439550       -2.0028452968       -0.2039405198
 C         -1.1330731956       -1.3047081474       -0.9881546749
 Si        -2.4190291364       -0.2771032670       -0.0317778179
 C         -2.9141714622       -1.2903680090        1.4876200087
 C         -1.9945903570       -1.5351323517        2.5023419081
 C         -2.3517996537       -2.2564102579        3.6267444551
 C         -3.6407839884       -2.7486653443        3.7516808678
 C         -4.5663151692       -2.5124474814        2.7495311965
 C         -4.2039404942       -1.7885837198        1.6271490831
 C         -3.8466829841       -0.0523152307       -1.2573021078
 C         -4.3986144399        1.2012607249       -1.4957626353
 C         -5.4612085531        1.3538414904       -2.3683595798
 C         -5.9903434118        0.2507122861       -3.0176566847
 C         -5.4496694092       -1.0042864076       -2.7911472074
 C         -4.3861506587       -1.1518422421       -1.9196173315
 C         -1.7275187405        1.4003873139        0.5057004755
 C         -1.6986007903        1.8067090094        1.8381989289
 C         -1.1181261043        3.0068083162        2.2030744266
 C         -0.5441683811        3.8233309387        1.2428359693
 C         -0.5532793087        3.4280111789       -0.0850539312
 C         -1.1393782735        2.2316991173       -0.4480734922
 C         -0.6864851221       -0.6772580371       -2.2033547900
 C          0.6053888326       -0.2610853774       -2.2598935056
 H          3.5613107049       -2.6048820484       -1.9304363450
 H          5.2176095768       -4.3145708360       -1.2206272569
 H          6.9008080170       -3.7469205501        0.4908395701
 H          6.9453483428       -1.4902986609        1.4809122083
 H          5.2884141406        0.2042991770        0.7670381795
 H          3.4052931351        2.9542415511       -1.2448492820
 H          3.0719308792        4.7064128566        0.4862013554
 H          2.4079012296        4.0510797066        2.7719650573
 H          2.0689995671        1.6749132083        3.3258931952
 H          2.4134374992       -0.0554918237        1.6013922118
 H          1.8950590473       -2.0429164853        0.3502693108
 H         -0.4650858622       -2.7732507308        0.4847229671
 H         -0.9884239599       -1.1521062190        2.4063996316
 H         -1.6259185322       -2.4354363206        4.4070393842
 H         -3.9217016667       -3.3145942985        4.6276157725
 H         -5.5732323517       -2.8928379346        2.8424750639
 H         -4.9306625625       -1.6039347354        0.8495814822
 H         -3.9890357966        2.0643896188       -0.9914840100
 H         -5.8785156246        2.3351877689       -2.5416279508
 H         -6.8204238737        0.3685920308       -3.6984325134
 H         -5.8578603736       -1.8684577455       -3.2952167064
 H         -3.9632231247       -2.1320230579       -1.7498934839
 H         -2.1504226358        1.1801291276        2.5936760383
 H         -1.1162805281        3.3094039725        3.2405062715
 H         -0.0969770678        4.7644819288        1.5252434842
 H         -0.1013510479        4.0556252352       -0.8393786037
 H         -1.1405029798        1.9312812281       -1.4847878278
 H         -1.3962899398       -0.4463069192       -2.9827192015
 H          0.9781797199        0.3104121390       -3.0987522936
