68
 energy: -100.197131591887 gnorm: 0.000108702481 xtb: 6.7.1 (edcfbbe)
O            3.93606320263995       -0.05693115935003        2.49525597492816
P            3.64394271554415       -0.04453369912987        1.04726075229359
C            4.23874599149742        1.46142020057542        0.21181248574572
C            5.35652179054532        2.08399988209435        0.75078537492309
C            5.87867194437606        3.21489162293831        0.14849203853956
C            5.28289665457675        3.72324939121252       -0.99498744516263
C            4.16506964101281        3.10433764352260       -1.53264275646959
C            3.64140768537677        1.97261937481885       -0.93319198652660
C            4.42305401286575       -1.42241907589052        0.15093805005036
C            4.39282301138343       -1.50878093640834       -1.23606725567320
C            5.01026893007956       -2.57163924639121       -1.86932974511528
C            5.65961478832549       -3.54455307294301       -1.12370510538533
C            5.69505775457883       -3.45561947184011        0.25849306103583
C            5.07704089599897       -2.39355740883282        0.89578221612685
C            1.85755279030273       -0.11141667517178        0.68925537300447
C            1.23564027150049       -1.17535268366922        0.05426701766859
C           -0.13489478774913       -1.15139455837353       -0.13796620056093
C           -0.90736328225350       -0.07985335265081        0.29677480964747
Si          -2.78220972936375       -0.01913335947762       -0.00543953576366
C           -3.43574093964463       -1.76798311657117       -0.34030100459669
C           -4.09154103480130       -2.49847259177638        0.64633047891738
C           -4.55521152969650       -3.77861332409083        0.39855261948516
C           -4.36905630604669       -4.35455200581750       -0.84723932258520
C           -3.72091773776572       -3.64128444228321       -1.84250685209863
C           -3.26183264755358       -2.36129203616520       -1.58877961050923
C           -3.12941269797236        1.06825928792372       -1.52113254397606
C           -2.20708022742478        2.00891872639702       -1.97083685126778
C           -2.47818950570716        2.80869296623159       -3.06708774199643
C           -3.68385742273449        2.68194346308020       -3.73689765634513
C           -4.61329821532915        1.74987247409893       -3.30472457995227
C           -4.33554833313638        0.95300813396653       -2.20855562451731
C           -3.61480109968649        0.70424608961073        1.53621748895354
C           -4.71107011353453        1.55600659711287        1.43798176670162
C           -5.33081284120476        2.05634797676344        2.56959407434008
C           -4.86253980762111        1.71108162022136        3.82661757084493
C           -3.77038627305685        0.86663490492572        3.94343105328195
C           -3.15512408293821        0.37042077118306        2.80812987345097
C           -0.26782140781568        0.97286891431882        0.94895238456482
C            1.09852521956059        0.95955751671994        1.14673177848029
H            5.79607662230474        1.67300008732201        1.64967769097376
H            6.74752367998722        3.69907172812939        0.56989698821169
H            5.68808657856727        4.60673371071450       -1.46604846628122
H            3.69940956613981        3.50591357102268       -2.42086647894211
H            2.76262457506009        1.49314493060672       -1.34134566604275
H            3.88790465595084       -0.74531393615754       -1.80966012605722
H            4.98688917066448       -2.64238812365925       -2.94695540577320
H            6.14170465489952       -4.37235795895266       -1.62269628314856
H            6.20310610277968       -4.21152971147148        0.83929290048410
H            5.09139791502786       -2.29791326619546        1.97283528281156
H            1.82286153584273       -2.01617959696795       -0.28904631158015
H           -0.61502450661841       -1.98360584850945       -0.63177224789814
H           -4.24366626427540       -2.05438772091856        1.61974578552781
H           -5.06330500017127       -4.32904978804432        1.17803109694615
H           -4.73012116028401       -5.35429162929855       -1.04279448127472
H           -3.57559012056981       -4.08451494888820       -2.81782624105307
H           -2.76475364848781       -1.80686934905290       -2.37264233578411
H           -1.26260839323590        2.11164639188210       -1.45563640085720
H           -1.74831687602810        3.53297876912162       -3.40091547295256
H           -3.89789288537143        3.30521171675519       -4.59351952259113
H           -5.55534903641656        1.64475507577346       -3.82447325806844
H           -5.06250762765948        0.22322469514402       -1.88034325802301
H           -5.07936592345774        1.83246099611769        0.46047968615962
H           -6.18074759737958        2.71727972708632        2.47266407146441
H           -5.34484014747237        2.09981909449167        4.71222827759183
H           -3.39816676028319        0.59538788465134        4.92159317165411
H           -2.30024780370686       -0.28442833233885        2.90738095045089
H           -0.85241681655778        1.80847577466341        1.30698060510141
H            1.59902828146429        1.77408001030728        1.65646149803016
