  68
       -100.15217210
 O          3.9563806656       -0.0573120240        2.5324132162
 P          3.6497245442       -0.0426823077        1.0938010558
 C          4.2254550565        1.4572914321        0.2330223255
 C          5.3511727102        2.0885812950        0.7423522231
 C          5.8627543176        3.2092378623        0.1129664848
 C          5.2488079208        3.6980814277       -1.0287945522
 C          4.1212858975        3.0715859328       -1.5359765802
 C          3.6079885672        1.9508686805       -0.9085672008
 C          4.4097520747       -1.4146999327        0.1709318040
 C          4.3609094575       -1.4844240398       -1.2158995835
 C          4.9586728930       -2.5455182832       -1.8697617048
 C          5.6065139504       -3.5340890529       -1.1439603308
 C          5.6601214025       -3.4619629033        0.2382298199
 C          5.0622296529       -2.4008433030        0.8955972462
 C          1.8634739588       -0.1110480071        0.7295609830
 C          1.2456962560       -1.1870940521        0.1124088051
 C         -0.1219904526       -1.1643386839       -0.0958588039
 C         -0.8942260446       -0.0808977553        0.3069215702
 Si        -2.7631220555       -0.0234388738       -0.0096807293
 C         -3.4099023333       -1.7715258486       -0.3469757643
 C         -4.0587859391       -2.5056250650        0.6404011805
 C         -4.5157651420       -3.7875126739        0.3918000220
 C         -4.3296513040       -4.3597628268       -0.8552727033
 C         -3.6876387812       -3.6422033887       -1.8510024037
 C         -3.2342159266       -2.3608801845       -1.5962242430
 C         -3.1124966283        1.0646837759       -1.5214225770
 C         -2.2029874152        2.0244556178       -1.9537220060
 C         -2.4818347774        2.8333219338       -3.0408624572
 C         -3.6819668109        2.6952371206       -3.7174845321
 C         -4.5976566434        1.7421521707       -3.3031602391
 C         -4.3123184553        0.9365609393       -2.2160003626
 C         -3.6045682929        0.7021131491        1.5232428899
 C         -4.6829517537        1.5740144858        1.4155600087
 C         -5.3047576238        2.0810204040        2.5424520470
 C         -4.8564745684        1.7210049795        3.8021257403
 C         -3.7822109560        0.8557201126        3.9275773106
 C         -3.1639097091        0.3536694777        2.7971843475
 C         -0.2600717782        0.9840473460        0.9431918883
 C          1.1038213046        0.9721204245        1.1537829663
 H          5.8052750122        1.6925515943        1.6395572317
 H          6.7380596163        3.7011228046        0.5107705160
 H          5.6461009140        4.5722949262       -1.5229756788
 H          3.6402384648        3.4590709694       -2.4223818996
 H          2.7206390687        1.4669149560       -1.2921744118
 H          3.8576672724       -0.7083808667       -1.7739655804
 H          4.9214691667       -2.6033207814       -2.9478791584
 H          6.0726239902       -4.3606036250       -1.6597259453
 H          6.1667143091       -4.2309471623        0.8022036337
 H          5.0896912709       -2.3173796411        1.9722466839
 H          1.8346998927       -2.0362980054       -0.2045845203
 H         -0.6018859248       -2.0038299728       -0.5774182130
 H         -4.2112984451       -2.0612204367        1.6133198707
 H         -5.0191026698       -4.3415396959        1.1710394942
 H         -4.6856789698       -5.3604707900       -1.0518743348
 H         -3.5423151829       -4.0830134430       -2.8269115702
 H         -2.7415509245       -1.8007616690       -2.3791315830
 H         -1.2641587110        2.1352916558       -1.4302945316
 H         -1.7630506333        3.5740102870       -3.3612425017
 H         -3.9024578399        3.3264103146       -4.5659170842
 H         -5.5345718646        1.6280439585       -3.8291975969
 H         -5.0266146093        0.1896484623       -1.8994839626
 H         -5.0332022192        1.8611106146        0.4343031713
 H         -6.1402083683        2.7584637102        2.4394568698
 H         -5.3409950011        2.1146828002        4.6836126471
 H         -3.4263341508        0.5732838776        4.9080224203
 H         -2.3213344295       -0.3159415034        2.8996539367
 H         -0.8490077484        1.8261396876        1.2782004065
 H          1.6012424231        1.7960709994        1.6488307652
