68
 energy: -100.197154675209 gnorm: 0.000137162708 xtb: 6.7.1 (edcfbbe)
O            3.93382314845125       -0.17137339047169       -2.87944066086811
P            3.71833111398319       -0.11615561774750       -1.42009384649917
C            4.48558087857571       -1.51197318149092       -0.53450179428305
C            4.69095552643426       -2.68182739577611       -1.25346092984622
C            5.26119122978510       -3.78258663742327       -0.63888409670103
C            5.62689990925002       -3.71388802272467        0.69613822816121
C            5.42707179602776       -2.54489432163077        1.41396390760560
C            4.85758811267724       -1.44209027700542        0.80227684178179
C            4.41468655262308        1.38482357425714       -0.65452648143040
C            5.53519264631504        1.93790640576573       -1.25994959312732
C            6.12803496748664        3.06642998881357       -0.72233874184676
C            5.59962902863381        3.64339352519423        0.42180736729238
C            4.47785110404230        3.09545581752681        1.02402881195679
C            3.88258831745087        1.96636533206282        0.48903962399520
C            1.95639982265999       -0.12680855746529       -0.95817925885373
C            1.47653254061706       -0.68697686760798        0.21878221178743
C            0.12474005971194       -0.62906221788600        0.50132302181955
C           -0.77308913344464       -0.01846059654611       -0.37128288138908
Si          -2.62725765864316        0.02369423425776        0.04177404785788
C           -3.39933418162327       -1.66430422553783       -0.34472502450774
C           -4.78280135249534       -1.79426954228583       -0.44325569033909
C           -5.36865963151683       -3.01685048272627       -0.71769397622759
C           -4.57635679532057       -4.13823109166949       -0.90288093176582
C           -3.19877680663964       -4.02656284672254       -0.81345050986020
C           -2.61927684543673       -2.80076389277076       -0.53621007956500
C           -3.49197080935406        1.34053657429574       -1.01387719640643
C           -3.81564082016293        1.07210939608337       -2.34206473203064
C           -4.43182612734376        2.02414832019089       -3.13411491561121
C           -4.73910917144675        3.26869949542991       -2.60847996365937
C           -4.42864762425455        3.55126333864061       -1.28856275296042
C           -3.81149695570023        2.59453951128030       -0.50179093783357
C           -2.79881014153193        0.43823995949445        1.88512080889582
C           -1.96724386408784        1.39007311321172        2.47162940493118
C           -2.09103313773672        1.72145945043747        3.80889995012447
C           -3.05487353555702        1.10345399052585        4.58903880191594
C           -3.88858952980927        0.15298606041814        4.02349746965818
C           -3.75913951063489       -0.17407561795228        2.68493042821272
C           -0.27540521875488        0.53482044314715       -1.54703545695608
C            1.07419499634330        0.48239691199335       -1.84086131311928
H            4.40623551674368       -2.70639211873725       -2.29653739938091
H            5.42166759082143       -4.69144067117853       -1.20022758021824
H            6.07344759109455       -4.57162677179803        1.17722516332996
H            5.71903915731068       -2.49132471427263        2.45269823080601
H            4.71005925892691       -0.52506275661931        1.35473691154066
H            5.92185558889234        1.47485342602015       -2.15774152455966
H            6.99978640870504        3.49538037673356       -1.19454382374953
H            6.06055560334752        4.52491550949303        0.84266456607592
H            4.06465960745849        3.55000899075975        1.91271541414512
H            3.00215401146134        1.54039905084202        0.94947522618210
H            2.15884289731887       -1.17055180007379        0.90392296576061
H           -0.24455460067925       -1.06317217920892        1.41974484875118
H           -5.40603124716652       -0.92101587136473       -0.30917546235415
H           -6.44433385605338       -3.09703384790625       -0.78994455132866
H           -5.03093809752298       -5.09452840743718       -1.11945024284864
H           -2.57499922071889       -4.89707603733504       -0.96162513324444
H           -1.54316439214054       -2.72164332524333       -0.47359821829852
H           -3.58459318845192        0.10037363377936       -2.75638135150313
H           -4.67454578204272        1.79657132996229       -4.16278044756449
H           -5.22062740029568        4.01438770633509       -3.22507660119818
H           -4.66920894194239        4.51967025266922       -0.87262348295513
H           -3.57620535788790        2.82070814868764        0.52840872476066
H           -1.21076579101264        1.87306837957920        1.86843992668262
H           -1.43582624550207        2.46228570737311        4.24568782304019
H           -3.15421946915282        1.36063695216243        5.63403916074155
H           -4.64098623324633       -0.33383166257904        4.62812522331966
H           -4.41027061915711       -0.91955491615741        2.25165905715895
H           -0.95390603441131        1.01572267843757       -2.23659192043123
H            1.46492134573572        0.90363027748546       -2.75783266295761
