68
 energy: -100.074764174498 gnorm: 0.000038154585 xtb: 6.7.1 (edcfbbe)
O            3.78018514327788        0.01728666692459       -2.78001242453383
P            3.45794670986778       -0.21765842936630       -1.35544991135538
C            4.52801370691989       -1.50226523123617       -0.61661562702515
C            4.12543740754624       -2.82958924568661       -0.60476008052839
C            4.98869487251333       -3.80709711415222       -0.14096249863205
C            6.25621786119392       -3.45956307552946        0.29867295850942
C            6.66548609680493       -2.13538955500033        0.27003267310712
C            5.80279019420937       -1.15680915020635       -0.19096365685779
C            3.68317638328976        1.27139599453717       -0.33086166615079
C            3.63817125572041        2.50345656564551       -0.97868226755859
C            3.68038420856665        3.67366330510413       -0.24721871902394
C            3.74546252328872        3.62246798356520        1.13902389070693
C            3.77318663603063        2.39547468014312        1.78784571933103
C            3.73089928859301        1.22210090841987        1.06138165542214
C            1.75376734837792       -0.63420681448729       -1.03813117307890
C            1.31089058397810       -1.13665888411778        0.21821688015162
C           -0.01048118380326       -1.34517366796056        0.44817302380352
C           -0.98358734382898       -0.89840918584222       -0.49737019345456
Si          -2.57736486586602       -0.12293049061701        0.12341496730000
C           -3.16036024759145       -1.23159416612143        1.56361303122180
C           -2.58031073692692       -1.12098543204561        2.82119606510396
C           -3.02722212125634       -1.89871201050306        3.87532329063011
C           -4.06080866690272       -2.80046811229966        3.67999764027503
C           -4.64741431962127       -2.91519808648994        2.43130670383500
C           -4.19614077963781       -2.13784343812362        1.37753483092338
C           -3.77756979936185       -0.09451848345338       -1.34645688074836
C           -4.52684142949969        1.04018341770252       -1.64163290572952
C           -5.43182976547990        1.04011541073986       -2.68859677704018
C           -5.60085866407405       -0.09739625922586       -3.46091466361646
C           -4.85965094298971       -1.23420083318169       -3.18024164199977
C           -3.95536468527834       -1.23038702287905       -2.13366920592788
C           -2.44269166541646        1.63661398384666        0.83982584880903
C           -3.31590590523912        2.11051991079179        1.81535600404356
C           -3.16361797418017        3.37782284960128        2.34912004695738
C           -2.12828468121164        4.19194118890862        1.91867056632397
C           -1.24754403279219        3.73105189339587        0.95362112762889
C           -1.40437503885576        2.46463250642645        0.41948419239994
C           -0.53348035439681       -0.54884361963782       -1.81248919468114
C            0.78891818773436       -0.34132381618915       -2.03811162145663
H            3.13508064878328       -3.08377168265748       -0.96046516290960
H            4.67424834123834       -4.84061935473686       -0.12596222819458
H            6.92935270554883       -4.22338409221506        0.65949214359690
H            7.65735826115864       -1.86657481723577        0.60366452187131
H            6.10543850958729       -0.11756630533369       -0.22500016840403
H            3.59290018166440        2.51698680725287       -2.05947039550373
H            3.66238811401162        4.62752037823502       -0.75502254382915
H            3.77168996100548        4.53723268387047        1.71249843746985
H            3.82612960761090        2.35718577697773        2.86649532505857
H            3.75784864224772        0.26484999516500        1.56227328391604
H            2.04719784662968       -1.42522211016977        0.95529496209589
H           -0.33958956454599       -1.78894507544212        1.37534905733056
H           -1.77934512945914       -0.41313037323586        2.98008542389889
H           -2.56908949343900       -1.80012714795704        4.84906721082870
H           -4.40693100194331       -3.41305615583387        4.49996236445609
H           -5.45683582772164       -3.61355360230367        2.27364103930663
H           -4.65998238367243       -2.23080237531101        0.40721357030030
H           -4.39709820479559        1.93282143474640       -1.04715885361713
H           -6.00525113580981        1.93051854737169       -2.90412400440004
H           -6.30460598183180       -0.09715647883491       -4.28078934985946
H           -4.98603492915929       -2.12466457615655       -3.77976271672364
H           -3.37412103065923       -2.11767478150898       -1.92669614880460
H           -4.12532312170900        1.48020838142938        2.15545955731854
H           -3.85291998409684        3.73191348378662        3.10254923086663
H           -2.00681023552698        5.18137307797670        2.33556932651956
H           -0.43284372948135        4.35657806960680        0.61668140073781
H           -0.70957497460511        2.11044881667383       -0.32881796478066
H           -1.25706941069546       -0.37493599827996       -2.59419389162588
H            1.14580002897658       -0.01596798237475       -3.00665059927094
