  72
       -119.77543100
 C          6.4180122439       -3.2201846667        1.2498489183
 C          7.5815659904       -2.4906470977        0.9650723360
 N          7.5658944512       -1.2727871337        0.4922985637
 C          6.3994592507       -0.6709898141        0.2603259743
 C          5.1613048062       -1.3166378552        0.5111501828
 C          5.2036853102       -2.6260873646        1.0200640173
 C          3.9202675867       -0.6658546417        0.2586030971
 N          2.7647520543       -1.2789850808        0.4770292784
 C          1.5986782712       -0.6772501151        0.2536678289
 C          0.3787319825       -1.3004949445        0.4943253394
 C         -0.8286037500       -0.6514244503        0.2624702445
 N         -2.0361304076       -1.3081223080        0.5366551275
 C         -3.0909711159       -0.7739829090        1.2498708014
 C         -3.1113623842        0.3337071047        2.0837990101
 C         -4.3120039303        0.6672030958        2.6801416242
 C         -5.4579694390       -0.0970906611        2.4773771030
 C         -5.4260391650       -1.2373541198        1.6970850533
 C         -4.2329717364       -1.5884366511        1.0828296725
 C         -3.8324634511       -2.6803509206        0.2388767897
 C         -4.4989437759       -3.7796697575       -0.2824728660
 C         -3.8036632178       -4.6489768850       -1.1010826219
 C         -2.4629742819       -4.4290801951       -1.4068568744
 C         -1.7779281996       -3.3403344281       -0.9011839386
 C         -2.4691342819       -2.4711742837       -0.0702417961
 C         -0.8285408342        0.6575143985       -0.2544421819
 N         -2.0362717413        1.3113353241       -0.5342089850
 C         -2.4756501210        2.4735864057        0.0697337612
 C         -1.7892255492        3.3485266088        0.8985291635
 C         -2.4791611149        4.4368985855        1.3983785693
 C         -3.8202503771        4.6502010273        1.0896573044
 C         -4.5110681939        3.7745296539        0.2739958573
 C         -3.8395043566        2.6758896908       -0.2421340579
 C         -4.2335295339        1.5806101861       -1.0847815024
 C         -5.4238719045        1.2224259553       -1.7004773491
 C         -5.4479564012        0.0823143973       -2.4810785051
 C         -4.2970150575       -0.6750216290       -2.6830489823
 C         -3.0995341379       -0.3351616110       -2.0843146756
 C         -3.0871989500        0.7719659184       -1.2493012239
 C          0.3789681010        1.3077500704       -0.4822551833
 C          1.5986954183        0.6849499711       -0.2393501858
 N          2.7650329460        1.2864260076       -0.4624747536
 C          3.9202951614        0.6718405233       -0.2471946788
 C          5.1615053017        1.3200749178       -0.5055764685
 C          5.2040485895        2.6285028625       -1.0171329091
 C          6.4184055111        3.2193168411       -1.2549462521
 C          7.5818639527        2.4879269036       -0.9743866191
 N          7.5660354786        1.2710165669       -0.4991994550
 C          6.3995011175        0.6719934413       -0.2604742445
 H          6.4871235332       -4.2238771839        1.6386968429
 H          8.5606427988       -2.9204881397        1.1292292261
 H          4.2671099974       -3.1286488382        1.2145310306
 H          0.3805833995       -2.2965342553        0.9072815386
 H         -2.2208998315        0.9150939521        2.2672847102
 H         -4.3596365699        1.5377596504        3.3170770107
 H         -6.3800725367        0.1990208054        2.9546561084
 H         -6.3086369497       -1.8448302342        1.5672685535
 H         -5.5407478750       -3.9456671182       -0.0547472684
 H         -4.3044045689       -5.5106587727       -1.5165945441
 H         -1.9482664998       -5.1220774799       -2.0558076698
 H         -0.7423807006       -3.1689166034       -1.1543456084
 H         -0.7533600144        3.1822917521        1.1538093476
 H         -1.9678757687        5.1348940137        2.0447186573
 H         -4.3249198684        5.5117688917        1.5005292376
 H         -5.5532512208        3.9356824563        0.0440803633
 H         -6.3101776628        1.8248315443       -1.5716093588
 H         -6.3675336706       -0.2195943224       -2.9594981872
 H         -4.3387574913       -1.5449067290       -3.3213081263
 H         -2.2048697236       -0.9103648802       -2.2667392268
 H          0.3814494139        2.3036970542       -0.8954290071
 H          4.2675110197        3.1323811983       -1.2083344954
 H          6.4876661234        4.2216959112       -1.6471530307
 H          8.5609758845        2.9150070121       -1.1453619433
  72
       -119.77466076
 C          6.4308573919       -3.0181927161        1.6742003958
 C          7.5937018067       -2.3103472330        1.3367452704
 N          7.5785292886       -1.1656501488        0.7071171773
 C          6.4128913094       -0.6193359910        0.3616222507
 C          5.1754244921       -1.2477906388        0.6557001352
 C          5.2174974891       -2.4814893521        1.3276845899
 C          3.9349334286       -0.6461329520        0.2994052542
 N          2.7808554336       -1.2583811543        0.5274320462
 C          1.6144213348       -0.6803915050        0.2481197645
 C          0.3953910180       -1.3102070683        0.4805352051
 C         -0.8099498214       -0.6646290941        0.2352836358
 N         -2.0266222603       -1.3095625074        0.5081158111
 C         -3.0412488279       -0.7778558173        1.2780821145
 C         -2.9900123940        0.2730708143        2.1810453691
 C         -4.1560913794        0.6107312475        2.8399601948
 C         -5.3385140290       -0.0922458057        2.6236930735
 C         -5.3803174951       -1.1725390167        1.7626033238
 C         -4.2220980253       -1.5289103289        1.0872066478
 C         -3.8904440631       -2.5745819825        0.1587882863
 C         -4.6173532119       -3.6003420897       -0.4274056246
 C         -3.9776973450       -4.4391542576       -1.3199522970
 C         -2.6309496266       -4.2661805937       -1.6302755367
 C         -1.8857645413       -3.2509285245       -1.0610761485
 C         -2.5246085242       -2.4066723094       -0.1653439036
 C         -0.8111099164        0.6445151990       -0.2789288610
 N         -2.0279626962        1.2939574627       -0.5384838946
 C         -2.5078312742        2.3952407104        0.1420577282
 C         -1.8479031241        3.2382773193        1.0234655859
 C         -2.5766509196        4.2594163706        1.6032840947
 C         -3.9279422309        4.4389637384        1.3176742997
 C         -4.5888379316        3.6007925677        0.4401789499
 C         -3.8786074131        2.5693446848       -0.1564303487
 C         -4.2331540607        1.5230523256       -1.0757045456
 C         -5.4062418666        1.1708832192       -1.7271905690
 C         -5.3864886657        0.0891805920       -2.5873234612
 C         -4.2115835489       -0.6189064824       -2.8264625574
 C         -3.0311334717       -0.2856116217       -2.1912289608
 C         -3.0597869569        0.7659957924       -1.2880545567
 C          0.3933626752        1.2908127677       -0.5267831721
 C          1.6132527131        0.6649252969       -0.2890155810
 N          2.7789284380        1.2493215385       -0.5579344844
 C          3.9342677549        0.6459701304       -0.3136521328
 C          5.1749319732        1.2598098349       -0.6478969977
 C          5.2167359052        2.4940830179       -1.3188670903
 C          6.4308130830        3.0445685350       -1.6403562015
 C          7.5943839045        2.3497319310       -1.2790469314
 N          7.5792632387        1.2043468299       -0.6505830387
 C          6.4129867901        0.6447722696       -0.3292616829
 H          6.4998785091       -3.9601507382        2.1949887006
 H          8.5718263377       -2.6952359155        1.5926109182
 H          4.2814845942       -2.9703759352        1.5562104261
 H          0.3966251367       -2.3037083993        0.8997445630
 H         -2.0698455259        0.8048162035        2.3691255089
 H         -4.1483660302        1.4359268269        3.5362199854
 H         -6.2315356960        0.2053342530        3.1525327930
 H         -6.2924108693       -1.7313365436        1.6186246893
 H         -5.6624664100       -3.7334011255       -0.1925120904
 H         -4.5272418150       -5.2419723807       -1.7884591303
 H         -2.1601838254       -4.9380752261       -2.3326906820
 H         -0.8441720386       -3.1141910443       -1.3117422243
 H         -0.8030222550        3.0957561770        1.2565228509
 H         -2.0891881380        4.9301568324        2.2952578787
 H         -4.4640301764        5.2463424505        1.7936072627
 H         -5.6374200835        3.7387432062        0.2247170862
 H         -6.3124828956        1.7347478606       -1.5666558271
 H         -6.2911078337       -0.2048372478       -3.0981419100
 H         -4.2212883079       -1.4447869148       -3.5218669602
 H         -2.1172615931       -0.8213164527       -2.3973532275
 H          0.3933631055        2.2840346889       -0.9466298048
 H          4.2800612620        2.9725993974       -1.5662090470
 H          6.4998876490        3.9880105240       -2.1586546362
 H          8.5731533739        2.7460740266       -1.5141803423
  72
       -119.77462516
 C          6.4300935646       -2.7769778300        2.0629469253
 C          7.5961397989       -2.1720002430        1.5713928740
 N          7.5858940174       -1.1238245306        0.7914757914
 C          6.4221493620       -0.5851785518        0.4276443735
 C          5.1820361232       -1.1188039246        0.8629764527
 C          5.2186704475       -2.2433006790        1.7052984500
 C          3.9438369986       -0.5464761872        0.4545523582
 N          2.7873746755       -1.0287405249        0.8887324140
 C          1.6229043489       -0.5280748347        0.4818353437
 C          0.4027023538       -1.0295976757        0.9248581518
 C         -0.8005610705       -0.5180937083        0.4569188229
 N         -2.0188105926       -1.0574073970        0.9012884492
 C         -2.5245483750       -0.9390767820        2.1806144462
 C         -1.8832754743       -0.5386336456        3.3431010151
 C         -2.6359291075       -0.4671099547        4.4997853872
 C         -3.9923216240       -0.7836535348        4.5031635244
 C         -4.6341859619       -1.1847627041        3.3471095890
 C         -3.8997061910       -1.2672461350        2.1734261440
 C         -4.2309212986       -1.6123563520        0.8182114098
 C         -5.3978624907       -2.0129175997        0.1840658916
 C         -5.3538564218       -2.2906963864       -1.1692654456
 C         -4.1613258773       -2.2072424933       -1.8828631698
 C         -2.9868470415       -1.8107082061       -1.2729853865
 C         -3.0396954653       -1.4772904696        0.0716759803
 C         -0.7986812584        0.5443452350       -0.4652084149
 N         -2.0178679922        1.0800799744       -0.9129887760
 C         -3.0419083104        1.4874661648       -0.0804213962
 C         -2.9889576755        1.8214506136        1.2641191353
 C         -4.1670222828        2.1995550936        1.8786423681
 C         -5.3635719884        2.2644629518        1.1697243094
 C         -5.4087042313        1.9856059072       -0.1832677007
 C         -4.2381337600        1.6030238300       -0.8219248924
 C         -3.9080977191        1.2569027588       -2.1771326080
 C         -4.6483716052        1.1543121550       -3.3455733438
 C         -4.0078094185        0.7525699388       -4.5020976796
 C         -2.6466771907        0.4571002742       -4.5044240163
 C         -1.8880646282        0.5495005869       -3.3529975066
 C         -2.5283563366        0.9484131878       -2.1894547020
 C          0.4068339916        1.0586690649       -0.9252028970
 C          1.6257149162        0.5590931017       -0.4752178078
 N          2.7937264531        1.0576439373       -0.8757921094
 C          3.9473847669        0.5682845898       -0.4412345427
 C          5.1911008390        1.1287690864       -0.8503069831
 C          5.2391764529        2.2616567568       -1.6807895822
 C          6.4560162828        2.7779810123       -2.0458199756
 C          7.6165092782        2.1458664131       -1.5759631467
 N          7.5957549639        1.0919605621       -0.8040308269
 C          6.4267742697        0.5726366840       -0.4294399485
 H          6.4951957657       -3.6416359703        2.7044402621
 H          8.5727016913       -2.5651448892        1.8206785469
 H          4.2801561518       -2.6574987791        2.0445697573
 H          0.4028729054       -1.8570372326        1.6162280343
 H         -0.8345282949       -0.2810720510        3.3417195615
 H         -2.1639367602       -0.1544797721        5.4194999354
 H         -4.5480189316       -0.7093493151        5.4259788098
 H         -5.6867735141       -1.4234336267        3.3512732037
 H         -6.3186641103       -2.1063976475        0.7393755207
 H         -6.2537561078       -2.5946076125       -1.6825934772
 H         -4.1521828410       -2.4553415073       -2.9335459676
 H         -2.0594968003       -1.7676232332       -1.8235861673
 H         -2.0590597418        1.7907524494        1.8113464891
 H         -4.1581397602        2.4458656345        2.9297535032
 H         -6.2662065472        2.5531463291        1.6870226568
 H         -6.3331686492        2.0638416237       -0.7348361503
 H         -5.7047367067        1.3757465415       -3.3444408131
 H         -4.5684239369        0.6598433623       -5.4202708806
 H         -2.1758840519        0.1426698585       -5.4241542326
 H         -0.8356115072        0.3073805453       -3.3561884239
 H          0.4089720566        1.8858431469       -1.6169938416
 H          4.3049188820        2.6963237718       -2.0059075271
 H          6.5295105447        3.6489333720       -2.6778313787
 H          8.5974032935        2.5186883168       -1.8390825827
  72
       -119.77448522
 C          6.4088881783       -3.0066707123        1.6980952090
 C          7.5707868115       -2.3493930164        1.2677875831
 N          7.5543778855       -1.2114858190        0.6259514291
 C          6.3884288105       -0.6287553119        0.3478322329
 C          5.1517018631       -1.2077701847        0.7330021776
 C          5.1951488948       -2.4276387618        1.4297464590
 C          3.9107131074       -0.5890378296        0.4095889766
 N          2.7574798979       -1.0927809680        0.8272484547
 C          1.5906404657       -0.5590340774        0.4721200441
 C          0.3712255154       -1.0616399466        0.9128782352
 C         -0.8385839054       -0.5339562810        0.4738186230
 N         -2.0412289058       -1.0610008962        0.9657645285
 C         -2.4308268198       -1.0081277976        2.2910099402
 C         -1.6895212632       -0.6643661350        3.4114965760
 C         -2.3334134464       -0.6667728050        4.6347093136
 C         -3.6825768922       -0.9938394738        4.7436382538
 C         -4.4276866365       -1.3243739466        3.6276790470
 C         -3.8027692430       -1.3331226386        2.3891224956
 C         -4.2556065306       -1.6012706033        1.0518884977
 C         -5.4814489532       -1.9530751327        0.5070424104
 C         -5.5652012302       -2.1536247630       -0.8576297630
 C         -4.4395502905       -2.0466220884       -1.6701346478
 C         -3.2074621984       -1.7014445793       -1.1496027955
 C         -3.1337636295       -1.4349520314        0.2091879505
 C         -0.8394859744        0.5364394273       -0.4386966982
 N         -2.0400807701        1.0543949497       -0.9449207923
 C         -3.1409986598        1.4403821718       -0.2076756228
 C         -3.2368326621        1.7078923609        1.1496073070
 C         -4.4735117190        2.0713105673        1.6464596457
 C         -5.5822354204        2.1938033132        0.8130005584
 C         -5.4769426154        1.9860817572       -0.5490860154
 C         -4.2465423273        1.6151817396       -1.0704692908
 C         -3.7753887830        1.3328213688       -2.3983594819
 C         -4.3813342493        1.3144913655       -3.6463345848
 C         -3.6229906750        0.9609526948       -4.7461989166
 C         -2.2787801850        0.6222581415       -4.6127060763
 C         -1.6532852799        0.6311101316       -3.3802174353
 C         -2.4085226722        0.9959366375       -2.2756451155
 C          0.3685371558        1.0719040353       -0.8724015540
 C          1.5889916190        0.5735305005       -0.4309890218
 N          2.7536576245        1.1082982902       -0.7911031201
 C          3.9089676851        0.6004031815       -0.3853773665
 C          5.1485345961        1.2121847768       -0.7270428770
 C          5.1885737368        2.4316825050       -1.4245454750
 C          6.4017336270        3.0005965491       -1.7161251197
 C          7.5660631817        2.3334005347       -1.3083187304
 N          7.5525643159        1.1963219526       -0.6649015501
 C          6.3872212122        0.6236107875       -0.3640828928
 H          6.4788252525       -3.9453459650        2.2247698322
 H          8.5491250807       -2.7710291217        1.4558912990
 H          4.2598203632       -2.8778001130        1.7298107769
 H          0.3724908444       -1.9128564923        1.5747998339
 H         -0.6469870626       -0.3949122899        3.3322898053
 H         -1.7790882379       -0.4051757942        5.5238824523
 H         -4.1503992639       -0.9822721966        5.7167026294
 H         -5.4758349519       -1.5673456261        3.7130405374
 H         -6.3489440231       -2.0672964583        1.1389595107
 H         -6.5132186323       -2.4158375189       -1.3026984561
 H         -4.5289326012       -2.2371749482       -2.7291151800
 H         -2.3346231112       -1.6428533062       -1.7815099647
 H         -2.3773084765        1.6368567152        1.7984095399
 H         -4.5801057296        2.2647387959        2.7033570735
 H         -6.5341047687        2.4721610988        1.2397327396
 H         -6.3312699298        2.1095608622       -1.1970982193
 H         -5.4257818317        1.5657826076       -3.7509872756
 H         -4.0763886797        0.9397783358       -5.7259389520
 H         -1.7139032302        0.3425500823       -5.4896600066
 H         -0.6146157982        0.3530460332       -3.2813122190
 H          0.3669464718        1.9223736128       -1.5352789241
 H          4.2514728433        2.8897707282       -1.7065249184
 H          6.4693746840        3.9384803015       -2.2445436369
 H          8.5440671368        2.7467299922       -1.5155192028
  72
       -119.77445860
 C          6.4167999947       -2.9021734715        1.8884681474
 C          7.5834650055       -2.2791317040        1.4216349571
 N          7.5753139122       -1.1845355309        0.7082323752
 C          6.4131007823       -0.6152608144        0.3890367226
 C          5.1724820631       -1.1625383685        0.8057444544
 C          5.2069943245       -2.3356706420        1.5789857121
 C          3.9357502800       -0.5591052195        0.4398566269
 N          2.7794212489       -1.0374977789        0.8782214689
 C          1.6158169644       -0.5186487833        0.4920970894
 C          0.3950132281       -1.0072361261        0.9472505853
 C         -0.8077341852       -0.4931475270        0.4802417133
 N         -2.0261690644       -1.0247263779        0.9321424911
 C         -2.5287276163       -0.9068549808        2.2118948017
 C         -1.8934389247       -0.4785636635        3.3678493737
 C         -2.6420807927       -0.4192961483        4.5278767845
 C         -3.9887507827       -0.7747538473        4.5409553353
 C         -4.6249550261       -1.2022398649        3.3912043388
 C         -3.8945560048       -1.2721924628        2.2140981623
 C         -4.2211791170       -1.6414029551        0.8640896943
 C         -5.3769767406       -2.0886466427        0.2406444677
 C         -5.3293042212       -2.3836080138       -1.1088860323
 C         -4.1436501310       -2.2681777505       -1.8297821887
 C         -2.9800172105       -1.8264700324       -1.2306249869
 C         -3.0373146843       -1.4805179174        0.1107375143
 C         -0.8048329671        0.5563714265       -0.4561805185
 N         -2.0221601723        1.0788992015       -0.9218988300
 C         -3.0564589777        1.5002951789       -0.1101261132
 C         -3.0231142438        1.8492350964        1.2312999652
 C         -4.2069997429        2.2484739910        1.8204824708
 C         -5.3902902029        2.3193546138        1.0899386171
 C         -5.4157571216        2.0226400783       -0.2597440563
 C         -4.2390266093        1.6182494848       -0.8731982127
 C         -3.8889324719        1.2572667915       -2.2195182580
 C         -4.6086295332        1.1549691308       -3.4008602557
 C         -3.9499826445        0.7445378893       -4.5441238580
 C         -2.5914568166        0.4385343397       -4.5203564505
 C         -1.8533238355        0.5299722991       -3.3555501057
 C         -2.5113393550        0.9399956203       -2.2058713825
 C          0.4017331115        1.0692385412       -0.9156781213
 C          1.6196732394        0.5727205689       -0.4604369282
 N          2.7880599443        1.0785539655       -0.8504713622
 C          3.9408527957        0.5823487982       -0.4218661782
 C          5.1849321009        1.1612850642       -0.8027097861
 C          5.2340100580        2.3319420067       -1.5789266030
 C          6.4512089200        2.8717662167       -1.9067527259
 C          7.6107938556        2.2252639913       -1.4545251527
 N          7.5890708905        1.1327478078       -0.7383198097
 C          6.4197403625        0.5886477728       -0.4020867876
 H          6.4801881614       -3.8055775366        2.4743536325
 H          8.5589738839       -2.6924141125        1.6405792087
 H          4.2681930504       -2.7611842891        1.9031353734
 H          0.3926894717       -1.8308495796        1.6431852400
 H         -0.8519903339       -0.1927917012        3.3593668961
 H         -2.1745854388       -0.0864862039        5.4427822167
 H         -4.5411391375       -0.7110852209        5.4665359989
 H         -5.6700463478       -1.4717207093        3.4030799779
 H         -6.2913843999       -2.2069647283        0.8017722642
 H         -6.2201171455       -2.7267151113       -1.6132860481
 H         -4.1309779750       -2.5295012610       -2.8772421083
 H         -2.0572001663       -1.7606746919       -1.7864162529
 H         -2.1031637077        1.8164680953        1.7948001209
 H         -4.2129036290        2.5100757451        2.8679391209
 H         -6.2976259103        2.6279248245        1.5871356588
 H         -6.3295086969        2.1053768830       -0.8282720348
 H         -5.6627529242        1.3860511892       -3.4205275730
 H         -4.4937594202        0.6553316203       -5.4726953867
 H         -2.1058968791        0.1186064916       -5.4304403647
 H         -0.8026822186        0.2806235894       -3.3389151621
 H          0.4050234147        1.8934861903       -1.6108757006
 H          4.3001827046        2.7771544315       -1.8907173555
 H          6.5256935900        3.7718040801       -2.4964628363
 H          8.5918074925        2.6169941719       -1.6879647501
  72
       -119.77408668
 C          6.4083864577       -3.0625134732        1.5910328962
 C          7.5693830055       -2.3870670704        1.1873877491
 N          7.5512360394       -1.2258460070        0.5886003076
 C          6.3843571016       -0.6358056825        0.3307014028
 C          5.1483234510       -1.2316977438        0.6918131154
 C          5.1936585339       -2.4762708531        1.3432797363
 C          3.9065120121       -0.6047888714        0.3876202034
 N          2.7536691328       -1.1188383342        0.7933074884
 C          1.5866832297       -0.5765269816        0.4516684766
 C          0.3673680035       -1.0807772757        0.8904561129
 C         -0.8427562653       -0.5453957584        0.4612446058
 N         -2.0430043964       -1.0648445871        0.9673102640
 C         -2.4105508814       -0.9996531672        2.2984606597
 C         -1.6496130067       -0.6461757695        3.4027378677
 C         -2.2738806510       -0.6307146836        4.6360139545
 C         -3.6225926175       -0.9506710477        4.7702939728
 C         -4.3867997727       -1.2916846482        3.6704551156
 C         -3.7819330941       -1.3175715751        2.4220467851
 C         -4.2577242840       -1.5939065404        1.0944657668
 C         -5.4946118025       -1.9434255142        0.5736985903
 C         -5.6040150317       -2.1492999380       -0.7883937805
 C         -4.4930532063       -2.0482023264       -1.6218346171
 C         -3.2499937046       -1.7064398184       -1.1253543876
 C         -3.1497726990       -1.4371210122        0.2312920608
 C         -0.8440936227        0.5290125814       -0.4462141637
 N         -2.0432833034        1.0446653184       -0.9582707716
 C         -3.1509686554        1.4307149840       -0.2315456496
 C         -3.2599058005        1.7002331256        1.1243544061
 C         -4.5020760662        2.0611455228        1.6092497608
 C         -5.6034102032        2.1799734623        0.7655246368
 C         -5.4849371997        1.9712194570       -0.5953171357
 C         -4.2489597551        1.6024926136       -1.1047619663
 C         -3.7653941740        1.3195716702       -2.4281040851
 C         -4.3588964965        1.3012483848       -3.6821137132
 C         -3.5892480493        0.9492363722       -4.7746523379
 C         -2.2462764076        0.6111129341       -4.6280278156
 C         -1.6331511709        0.6194953171       -3.3892956869
 C         -2.3994695845        0.9840541833       -2.2922825448
 C          0.3640893846        1.0698858869       -0.8730917616
 C          1.5845340582        0.5705570501       -0.4328497052
 N          2.7486453238        1.1174613432       -0.7760221362
 C          3.9038181022        0.6061549681       -0.3744306551
 C          5.1421202645        1.2360224605       -0.6861766017
 C          5.1800251957        2.4798146434       -1.3393259139
 C          6.3918235480        3.0677645937       -1.5968864566
 C          7.5568840808        2.3947610015       -1.2010463025
 N          7.5454131334        1.2343830162       -0.6006309114
 C          6.3814372112        0.6426829716       -0.3333576584
 H          6.4796722723       -4.0205711083        2.0814069403
 H          8.5483431907       -2.8144252569        1.3585882995
 H          4.2590832193       -2.9397157980        1.6249341387
 H          0.3681420644       -1.9382513606        1.5442736674
 H         -0.6074644263       -0.3818326937        3.3032263107
 H         -1.7042071057       -0.3609769848        5.5129768770
 H         -4.0748619596       -0.9244902410        5.7504343499
 H         -5.4344593904       -1.5289845805        3.7756294705
 H         -6.3508575879       -2.0508975048        1.2220566178
 H         -6.5610567394       -2.4095039419       -1.2150020075
 H         -4.6029579156       -2.2409380164       -2.6785421148
 H         -2.3894317837       -1.6511164897       -1.7743516514
 H         -2.4064824336        1.6317509834        1.7814291424
 H         -4.6188507707        2.2554108885        2.6649219086
 H         -6.5600161413        2.4559066450        1.1831318080
 H         -6.3334455059        2.0918513085       -1.2514613501
 H         -5.4024401215        1.5517127741       -3.7971521724
 H         -4.0327509123        0.9285980326       -5.7588926289
 H         -1.6724051584        0.3326178614       -5.4994955310
 H         -0.5953084448        0.3422757070       -3.2800828356
 H          0.3622131570        1.9266478230       -1.5277980490
 H          4.2423820201        2.9415712009       -1.6133768397
 H          6.4577806846        4.0247501503       -2.0899760069
 H          8.5337626647        2.8231575761       -1.3812804292
  72
       -119.77346032
 C          6.4462204983       -2.9263919155        1.8310720113
 C          7.6091912337       -2.2336458395        1.4640656872
 N          7.5950091319       -1.1238221481        0.7745386534
 C          6.4300116601       -0.5997472150        0.3942215511
 C          5.1924506674       -1.2154037000        0.7138320198
 C          5.2335820105       -2.4127777740        1.4486298921
 C          3.9525028288       -0.6335842669        0.3238404289
 N          2.7987057904       -1.2403260921        0.5680028052
 C          1.6325718352       -0.6736672230        0.2642060430
 C          0.4139728114       -1.3029125451        0.5051361402
 C         -0.7886767399       -0.6614666569        0.2431211223
 N         -2.0150610907       -1.2894586655        0.5262483376
 C         -2.9902046250       -0.7456617850        1.3377554514
 C         -2.8687455022        0.2554362703        2.2891216201
 C         -4.0038165812        0.6175014515        2.9880822256
 C         -5.2248702261       -0.0110461771        2.7583519354
 C         -5.3390025593       -1.0393192828        1.8416557141
 C         -4.2123434413       -1.4211561084        1.1276037370
 C         -3.9499053908       -2.4308670385        0.1389232951
 C         -4.7385740333       -3.3811422712       -0.4924010971
 C         -4.1553934058       -4.2038101984       -1.4371300122
 C         -2.8031037878       -4.0923970449       -1.7519056833
 C         -1.9968203498       -3.1524806336       -1.1389439293
 C         -2.5807982466       -2.3192370615       -0.1968175863
 C         -0.7897277798        0.6391265336       -0.2907615612
 N         -2.0163044465        1.2724046937       -0.5595694275
 C         -2.5621829087        2.3059296371        0.1739873649
 C         -1.9551729463        3.1351670261        1.1049603702
 C         -2.7440154788        4.0789727401        1.7343302723
 C         -4.1014947486        4.1982344167        1.4459990023
 C         -4.7075964344        3.3796461966        0.5122631564
 C         -3.9367368046        2.4254672298       -0.1350206901
 C         -4.2241221353        1.4168433554       -1.1178901134
 C         -5.3668849308        1.0418565311       -1.8095745556
 C         -5.2769788012        0.0130438590       -2.7283511026
 C         -4.0644797491       -0.6229287456       -2.9816895576
 C         -2.9137047736       -0.2678023741       -2.3050982556
 C         -3.0102796493        0.7339536941       -1.3515754627
 C          0.4119449935        1.2817952529       -0.5544081667
 C          1.6315107720        0.6569499659       -0.3076793106
 N          2.7970998358        1.2306521116       -0.6001143053
 C          3.9521484487        0.6336850057       -0.3387060741
 C          5.1929070426        1.2287007817       -0.7054646206
 C          5.2351053341        2.4278493139       -1.4371895521
 C          6.4492686427        2.9562807763       -1.7936832756
 C          7.6124243931        2.2761073292       -1.4045487972
 N          7.5970612377        1.1645538883       -0.7179316862
 C          6.4306883625        0.6265967837       -0.3619954698
 H          6.5144824790       -3.8386228190        2.4025593198
 H          8.5866692359       -2.6009341284        1.7469283881
 H          4.2973286514       -2.8905752815        1.6987811682
 H          0.4151331966       -2.2901264991        0.9388031459
 H         -1.9181078982        0.7286669143        2.4823173055
 H         -3.9413190276        1.4027797102        3.7262942693
 H         -6.0918745692        0.3041984291        3.3192768524
 H         -6.2825821265       -1.5394683350        1.6849197279
 H         -5.7872260419       -3.4684073961       -0.2521701057
 H         -4.7541236181       -4.9471065315       -1.9420909236
 H         -2.3772077503       -4.7530870242       -2.4925473748
 H         -0.9497557784       -3.0639020858       -1.3885629459
 H         -0.9043683467        3.0393745628        1.3353743368
 H         -2.3002087539        4.7356807331        2.4679276265
 H         -4.6863039722        4.9435575053        1.9640419724
 H         -5.7604072286        3.4724529835        0.2932750487
 H         -6.3036977462        1.5490381114       -1.6356642616
 H         -6.1563265059       -0.2956106812       -3.2734846313
 H         -4.0211534575       -1.4081987745       -3.7212786370
 H         -1.9702300181       -0.7477172245       -2.5161042842
 H          0.4116483172        2.2690087152       -0.9880390121
 H          4.2987070361        2.8960413039       -1.7043580018
 H          6.5186677874        3.8715605495       -2.3601197184
 H          8.5911206812        2.6548808460       -1.6672980804
  72
       -119.77337786
 C          6.3970872997       -2.7651716477        2.0645780298
 C          7.5576700867       -2.1122747418        1.6243600149
 N          7.5384675051       -1.0703365439        0.8360224191
 C          6.3708465706       -0.5789652901        0.4219957047
 C          5.1351928022       -1.1578488198        0.8108391854
 C          5.1814514127       -2.2843186488        1.6500036482
 C          3.8929726018       -0.6069497589        0.3856697457
 N          2.7402281863       -1.1980192829        0.6670075006
 C          1.5736362372       -0.6494184223        0.3343158875
 C          0.3545086652       -1.2728805383        0.5733630013
 C         -0.8566630974       -0.6498380895        0.2876027235
 N         -2.0495930912       -1.3599064426        0.4823982315
 C         -3.1846559352       -0.9200583531        1.1323607431
 C         -3.3418307824        0.1524253615        1.9973604181
 C         -4.6049878737        0.3884465980        2.5046262037
 C         -5.6807926418       -0.4362777873        2.1861273547
 C         -5.5150319879       -1.5417199957        1.3738861501
 C         -4.2574125520       -1.7953439942        0.8475462482
 C         -3.7295758029       -2.8240621556       -0.0058542024
 C         -4.2841209068       -3.9372190577       -0.6213196974
 C         -3.4767322861       -4.7238772482       -1.4208807861
 C         -2.1349539252       -4.4074244468       -1.6178361461
 C         -1.5606135011       -3.3021869916       -1.0184382914
 C         -2.3641590017       -2.5189558595       -0.2031758699
 C         -0.8581614831        0.6556307836       -0.2347878960
 N         -2.0531579732        1.3586472131       -0.4426512297
 C         -2.3841034271        2.5184373701        0.2324989714
 C         -1.6012425039        3.3014287941        1.0679256425
 C         -2.1895551045        4.4087399243        1.6495840681
 C         -3.5248376735        4.7274866261        1.4153649110
 C         -4.3118696561        3.9410986623        0.5954742981
 C         -3.7431882732        2.8255214411       -0.0024888275
 C         -4.2486826986        1.7970950066       -0.8695800166
 C         -5.4907624191        1.5461615846       -1.4329628836
 C         -5.6348162516        0.4412541528       -2.2500910610
 C         -4.5521919001       -0.3864891064       -2.5360813853
 C         -3.3040509552       -0.1532589845       -1.9918743381
 C         -3.1698021825        0.9198573318       -1.1238058493
 C          0.3511399685        1.2833428668       -0.5171357089
 C          1.5716156622        0.6601121211       -0.2847842648
 N          2.7354303940        1.2074095388       -0.6284993830
 C          3.8897523168        0.6119517476       -0.3640427930
 C          5.1267465296        1.1559832545       -0.8124350173
 C          5.1629603108        2.2795572083       -1.6558911907
 C          6.3729741695        2.7522588425       -2.0951438328
 C          7.5381428741        2.0950356917       -1.6739964833
 N          7.5284430723        1.0554621524       -0.8825430462
 C          6.3661531875        0.5709210160       -0.4460254955
 H          6.4692817361       -3.6219661794        2.7158078010
 H          8.5371884492       -2.4540101046        1.9309423328
 H          4.2470756890       -2.7355713081        1.9514328294
 H          0.3546803765       -2.2483197848        1.0329776044
 H         -2.5097464009        0.7848226739        2.2664703543
 H         -4.7589489421        1.2307086950        3.1624447676
 H         -6.6548888194       -0.2144019631        2.5954029624
 H         -6.3437688213       -2.1962918227        1.1507205756
 H         -5.3266866599       -4.1780886725       -0.4797948779
 H         -3.8891267217       -5.5947898745       -1.9079789573
 H         -1.5307919218       -5.0356874259       -2.2554831304
 H         -0.5237400287       -3.0538786418       -1.1884700039
 H         -0.5695030821        3.0516133482        1.2651597421
 H         -1.6019490019        5.0371307288        2.3023994331
 H         -3.9486628014        5.5999977660        1.8896346671
 H         -5.3494633056        4.1843577607        0.4246355630
 H         -6.3243104434        2.2025996893       -1.2345263037
 H         -6.5968123387        0.2217237519       -2.6882358466
 H         -4.6887041066       -1.2288591312       -3.1976096443
 H         -2.4658478276       -0.7876595360       -2.2361439782
 H          0.3485684445        2.2601481789       -0.9738218654
 H          4.2253143348        2.7339896715       -1.9419614314
 H          6.4373806312        3.6067268801       -2.7502487679
 H          8.5135672710        2.4316245384       -1.9989004790
