  98
  -150.972294340000       0.321938484266319      !
 C        -10.4448821329        3.5939930227        1.5534979909
 C        -10.3637890654        2.2483758850        1.2373157204
 C         -9.1483108803        1.6860982585        0.8961701700
 C         -7.9912579655        2.4620316384        0.8600290312
 C         -6.7009058126        1.8642213547        0.4966483060
 C         -6.3455714656        0.5956410617        0.9546998188
 C         -5.1347915546        0.0292793037        0.6205271920
 C         -4.2380203413        0.7129579787       -0.2034121963
 N         -3.0138113976        0.1548468881       -0.5590751101
 C         -1.8861633579        0.9798437371       -0.6948864727
 C         -1.6313885043        1.9933738917        0.2276380979
 C         -0.4906992832        2.7609193674        0.1177525081
 C          0.4137901280        2.5564886412       -0.9221938663
 C          1.6264791052        3.3813029245       -1.0278409132
 C          1.9761164843        3.9757855884       -2.2371264122
 C          3.1080357873        4.7638123774       -2.3297137600
 C          3.9138003576        4.9582804368       -1.2207926906
 C          3.5760254586        4.3680896644       -0.0148921480
 C          2.4386155854        3.5886545964        0.0839713079
 C          0.1398586860        1.5592743075       -1.8561041163
 C         -0.9877178793        0.7739553247       -1.7414511581
 C         -2.8409074058       -1.2279295806       -0.6682920652
 C         -3.8619976745       -2.0421136877       -1.1859024910
 C         -3.7089446758       -3.4088878900       -1.2719400554
 C         -2.5095808416       -3.9858673483       -0.8678314479
 C         -2.0120896347       -5.3282565314       -0.7921335124
 C         -2.5503857943       -6.5690857470       -1.1103627061
 C         -1.7749680226       -7.6948082879       -0.9208817033
 C         -0.4725934393       -7.5967726344       -0.4327859171
 C          0.0869068158       -6.3759050021       -0.1093280101
 C         -0.6933142970       -5.2414241014       -0.2788499259
 N         -0.3800488091       -3.9198314056       -0.0502930789
 C          0.8314672650       -3.3845811807        0.4154778182
 C          1.4111526193       -3.8372971736        1.5912694139
 C          2.5586045317       -3.2277379775        2.0802305884
 C          3.1452822301       -2.1553661831        1.4145361667
 N          4.1776982955       -1.4695462632        1.8948052266
 C          4.7411888731       -0.4643511772        1.2379164533
 C          5.7288148230        0.3419975286        1.9513140986
 C          6.6118251146       -0.2747170274        2.8378320715
 C          7.5221057527        0.4798123222        3.5523424792
 C          7.5575429191        1.8566699355        3.4031593423
 C          6.6665234674        2.4781703464        2.5412891571
 C          5.7553238027        1.7314569183        1.8220597257
 C          4.3131555969       -0.1809386023       -0.0807644403
 C          5.0269982993        0.6956476172       -1.0003384750
 C          6.4156916526        0.8407507190       -0.9695019242
 C          7.0527096210        1.6457053235       -1.8921606361
 C          6.3259092488        2.3007655315       -2.8743790031
 C          4.9524394465        2.1309951052       -2.9367606690
 C          4.3071491442        1.3389093120       -2.0099632121
 N          3.2173100915       -0.7830801563       -0.5335151524
 C          2.5785122417       -1.7269533966        0.1503497544
 C          1.4277585739       -2.3487368117       -0.3107064602
 C         -1.4682991633       -3.1528919899       -0.3939727773
 C         -1.6328738925       -1.7868952871       -0.2620670440
 C         -4.5881183660        1.9842324042       -0.6651815403
 C         -5.7951022773        2.5480316588       -0.3140752605
 C         -8.0859323887        3.8157061156        1.1767709529
 C         -9.3016237238        4.3747390659        1.5229303589
 H        -11.3945692987        4.0323324271        1.8222729079
 H        -11.2531765056        1.6352031300        1.2543120215
 H         -9.0951074203        0.6397745004        0.6331686729
 H         -7.0168398608        0.0596227769        1.6095417088
 H         -4.8662386605       -0.9424444826        1.0075362390
 H         -2.3254276443        2.1596218284        1.0387702923
 H         -0.2982427149        3.5380563938        0.8429817664
 H          1.3427857069        3.8324799031       -3.1012084033
 H          3.3623798927        5.2319078897       -3.2698006414
 H          4.8014432550        5.5684715578       -1.2956316515
 H          4.1994985538        4.5225634526        0.8540246091
 H          2.1831963898        3.1181616754        1.0230278294
 H          0.8276949629        1.3869707070       -2.6708929709
 H         -1.1844617592       -0.0081111859       -2.4601874243
 H         -4.7785890539       -1.5787029239       -1.5187246923
 H         -4.5089520199       -4.0230505318       -1.6563120668
 H         -3.5546732099       -6.6451918148       -1.4992709367
 H         -2.1760627140       -8.6687524239       -1.1590287413
 H          0.1123275779       -8.4959227515       -0.3076537261
 H          1.1004847772       -6.3046310452        0.2547395249
 H          0.9486969579       -4.6400118068        2.1446827974
 H          2.9915919935       -3.5447889231        3.0156593219
 H          6.5753751682       -1.3478093167        2.9500455918
 H          8.2072375639       -0.0078115338        4.2305957970
 H          8.2707519281        2.4449200415        3.9614260347
 H          6.6809460402        3.5533519748        2.4352518700
 H          5.0545146242        2.2178119960        1.1598503206
 H          6.9978977083        0.3088948790       -0.2321809610
 H          8.1271035781        1.7527086164       -1.8539396247
 H          6.8303356948        2.9267345149       -3.5955395706
 H          4.3827752389        2.6171666577       -3.7147121511
 H          3.2380302450        1.2022308536       -2.0475494455
 H          1.0186234858       -2.0421012550       -1.2602159508
 H         -0.8548848002       -1.1700207019        0.1600004432
 H         -3.9065711348        2.5193309611       -1.3102598533
 H         -6.0558558609        3.5225140854       -0.6995410436
 H         -7.1952328574        4.4270005851        1.1725368788
 H         -9.3581642093        5.4243248053        1.7722486198
  98
  -150.972016250000       0.239867594417851      !
 C        -10.1935249595        3.6193655505        1.9920044655
 C        -10.1614989604        2.2790291322        1.6447973167
 C         -8.9867120467        1.7035893184        1.1987387738
 C         -7.8224761747        2.4613952947        1.0867311995
 C         -6.5718124024        1.8525805994        0.6183290491
 C         -6.2013158887        0.5720853913        1.0286580636
 C         -5.0178028926        0.0036133117        0.6109822262
 C         -4.1648751459        0.6977535463       -0.2500543015
 N         -2.9621747714        0.1410123596       -0.6745087002
 C         -1.8340890329        0.9557694847       -0.8492007890
 C         -1.5527603523        1.9891136099        0.0438041973
 C         -0.4144976507        2.7520603994       -0.1124805946
 C          0.4644700864        2.5224992500       -1.1690577822
 C          1.6703120023        3.3478428266       -1.3305157014
 C          1.9950638328        3.8903093812       -2.5710055234
 C          3.1192487329        4.6808563050       -2.7184556317
 C          3.9433697406        4.9288398333       -1.6338459691
 C          3.6317946850        4.3893875862       -0.3976954507
 C          2.5009876855        3.6093545801       -0.2439134661
 C          0.1684679017        1.5000231908       -2.0686199187
 C         -0.9579012490        0.7209718811       -1.9091493676
 C         -2.8038457051       -1.2450136606       -0.7860018996
 C         -3.8356749388       -2.0469443654       -1.3004215292
 C         -3.6968525107       -3.4153371211       -1.3896845933
 C         -2.5040625773       -4.0060403615       -0.9853582257
 C         -2.0223378244       -5.3542222761       -0.9037053431
 C         -2.5701943646       -6.5896261604       -1.2267618435
 C         -1.8093660897       -7.7235762345       -1.0266423077
 C         -0.5126410145       -7.6399893149       -0.5210080596
 C          0.0565920887       -6.4249771022       -0.1927926695
 C         -0.7080411543       -5.2820333325       -0.3763534142
 N         -0.3805822072       -3.9642181428       -0.1503211991
 C          0.8166437429       -3.4331836960        0.3557817315
 C          1.3443417422       -3.8696068482        1.5616790602
 C          2.4547927636       -3.2362280881        2.1035351370
 C          3.0527544565       -2.1556593843        1.4615591113
 N          4.0305946616       -1.4316796514        1.9968115013
 C          4.6020781554       -0.4156129189        1.3644662452
 C          5.4957203626        0.4439084528        2.1371214768
 C          6.3306295956       -0.1181232784        3.1029005825
 C          7.1426245858        0.6885242691        3.8765412393
 C          7.1250247928        2.0635074060        3.7085834641
 C          6.2801265991        2.6303123000        2.7663016384
 C          5.4682251291        1.8313183584        1.9869841885
 C          4.2613586194       -0.1702745016        0.0121284373
 C          5.0161706100        0.6997232437       -0.8792771755
 C          6.3885679911        0.9144334487       -0.7331835432
 C          7.0707326921        1.7041649893       -1.6363851384
 C          6.4089072618        2.2733647390       -2.7134381845
 C          5.0558649465        2.0331212662       -2.8890629958
 C          4.3638136338        1.2579719639       -1.9821507520
 N          3.2141858766       -0.8108942388       -0.4995583581
 C          2.5534750116       -1.7562473246        0.1600293107
 C          1.4387233413       -2.4013155299       -0.3540080313
 C         -1.4559091018       -3.1850004287       -0.5061335137
 C         -1.6028584549       -1.8165067334       -0.3793867179
 C         -4.5364728457        1.9758305382       -0.6747430597
 C         -5.7153925467        2.5412876042       -0.2407230544
 C         -7.8678544867        3.8099710155        1.4359741723
 C         -9.0423422299        4.3820626594        1.8868104435
 H        -11.1113236347        4.0674535302        2.3429264531
 H        -11.0575927086        1.6801780222        1.7205631682
 H         -8.9732633475        0.6616072193        0.9136246330
 H         -6.8350744604        0.0289265159        1.7140370034
 H         -4.7338762888       -0.9767134668        0.9638623559
 H         -2.2247124437        2.1759296704        0.8688474816
 H         -0.2052482864        3.5467293262        0.5886233501
 H          1.3474698221        3.7062582446       -3.4164768481
 H          3.3538377929        5.1075606170       -3.6830729772
 H          4.8250894528        5.5409545823       -1.7510433681
 H          4.2731203720        4.5826810390        0.4500402452
 H          2.2637548988        3.1808392165        0.7198691491
 H          0.8383691169        1.3045243298       -2.8931110366
 H         -1.1725782765       -0.0771294612       -2.6047981875
 H         -4.7490408413       -1.5724746818       -1.6268073353
 H         -4.5040107720       -4.0202424165       -1.7738636613
 H         -3.5702668007       -6.6554341869       -1.6283072252
 H         -2.2181891716       -8.6931102451       -1.2696271334
 H          0.0598217294       -8.5457992432       -0.3860898333
 H          1.0653648533       -6.3634777890        0.1863487338
 H          0.8657710760       -4.6741423853        2.0985207710
 H          2.8419478131       -3.5358019300        3.0644253805
 H          6.3353187478       -1.1901280181        3.2299083038
 H          7.7919163422        0.2429433232        4.6161628065
 H          7.7605792165        2.6925596730        4.3140775385
 H          6.2519178001        3.7036275179        2.6451745654
 H          4.8031553925        2.2741226412        1.2606806512
 H          6.9249855154        0.4474752589        0.0789420306
 H          8.1311299027        1.8659109613       -1.5072923216
 H          6.9490850647        2.8866782720       -3.4192997523
 H          4.5389597970        2.4510301693       -3.7400684719
 H          3.3100178970        1.0660857128       -2.1088941699
 H          1.0752484470       -2.1119578429       -1.3272452012
 H         -0.8185686131       -1.2068660658        0.0416479085
 H         -3.8929163057        2.5163384247       -1.3533738888
 H         -5.9929161673        3.5232184660       -0.5944852644
 H         -6.9688616791        4.4060236752        1.3745937889
 H         -9.0598274564        5.4271453240        2.1603700568
  98
  -150.971929870000       0.218914274112250      !
 C        -10.7618861093        3.5813717482        0.8180853547
 C        -10.6305142809        2.2293973139        0.5487522857
 C         -9.3772834136        1.6734604697        0.3737006251
 C         -8.2316317466        2.4622989704        0.4603532242
 C         -6.9018697245        1.8738463240        0.2608390471
 C         -6.5863796261        0.6176456727        0.7783735997
 C         -5.3435877040        0.0556335222        0.5811859840
 C         -4.3732612136        0.7304250264       -0.1626167995
 N         -3.1188133553        0.1771914304       -0.4003457513
 C         -1.9905385731        1.0164692584       -0.4265306294
 C         -1.7964661529        1.9735618254        0.5670919764
 C         -0.6329566229        2.7143221369        0.5958984109
 C          0.3524447052        2.5399786993       -0.3737679814
 C          1.6151441313        3.2895318856       -0.2982108233
 C          2.1380827856        3.9321802551       -1.4167399468
 C          3.3317017536        4.6247884959       -1.3336536734
 C          4.0231419570        4.6792215898       -0.1356052050
 C          3.5108610327        4.0436591591        0.9835232142
 C          2.3147045447        3.3554162664        0.9039834321
 C          0.1243588123        1.6225668665       -1.3973918592
 C         -1.0260061769        0.8631186073       -1.4209728468
 C         -2.9125312571       -1.1997821909       -0.4979746341
 C         -3.9010413351       -2.0433808072       -1.0335141686
 C         -3.7130628931       -3.4063851648       -1.1076244889
 C         -2.5047597255       -3.9512557401       -0.6861005878
 C         -1.9668491110       -5.2777686342       -0.6114534021
 C         -2.4672488869       -6.5339071854       -0.9315770791
 C         -1.6553182276       -7.6351493285       -0.7512227522
 C         -0.3537775983       -7.4972793699       -0.2708267249
 C          0.1679429431       -6.2604192929        0.0553500024
 C         -0.6490969576       -5.1507027304       -0.1037320353
 N         -0.3779328607       -3.8201295990        0.1321222198
 C          0.8458166433       -3.2532715209        0.5249518521
 C          1.5025448618       -3.6866058639        1.6668804193
 C          2.6909235048       -3.0847433810        2.0567498010
 C          3.2482342206       -2.0425815264        1.3207185716
 N          4.3481989692       -1.3942554873        1.6887564549
 C          4.8958948924       -0.4319827783        0.9563176043
 C          6.0150389349        0.3074973317        1.5333493416
 C          6.9358096035       -0.3640127118        2.3388907720
 C          7.9838327266        0.3215769214        2.9213323381
 C          8.1240736308        1.6852166619        2.7200438586
 C          7.1987366073        2.3629151923        1.9408367778
 C          6.1497760405        1.6849175857        1.3531825131
 C          4.3436653296       -0.1411491015       -0.3123704838
 C          5.0022909388        0.6976318161       -1.3083197609
 C          6.3895989877        0.7130164321       -1.4655723300
 C          6.9695597581        1.4873398379       -2.4501257342
 C          6.1824072314        2.2462464596       -3.3030119615
 C          4.8036777094        2.2099616279       -3.1754307389
 C          4.2176330550        1.4404212764       -2.1911785272
 N          3.1839472303       -0.6973622091       -0.6473102356
 C          2.5840230910       -1.6173134651        0.1039548770
 C          1.3915386344       -2.2278426541       -0.2546104893
 C         -1.4908024094       -3.0881554177       -0.2079465002
 C         -1.6965246013       -1.7286457585       -0.0720080071
 C         -4.6785378047        1.9955584417       -0.6711599967
 C         -5.9188730930        2.5550265525       -0.4569679288
 C         -8.3765016925        3.8214800025        0.7322287146
 C         -9.6303645125        4.3744196099        0.9115039713
 H        -11.7414375372        4.0149455308        0.9553878324
 H        -11.5098485364        1.6065363968        0.4707087749
 H         -9.2831439798        0.6217939623        0.1449326346
 H         -7.3178091418        0.0875744094        1.3704665707
 H         -5.1095786950       -0.9060768086        1.0130100083
 H         -2.5507486044        2.1083478421        1.3287495665
 H         -0.4809676265        3.4393879744        1.3820320561
 H          1.5930485967        3.9018578622       -2.3494810118
 H          3.7254600303        5.1261775046       -2.2053770145
 H          4.9592632026        5.2143069329       -0.0746105551
 H          4.0445174114        4.0837458176        1.9222638655
 H          1.9264264111        2.8449385784        1.7736228997
 H          0.8686514838        1.4807731194       -2.1663940384
 H         -1.1831102816        0.1319473217       -2.2003899455
 H         -4.8206050409       -1.6065144381       -1.3923880724
 H         -4.4915926279       -4.0419198636       -1.5013926910
 H         -3.4707734256       -6.6400380754       -1.3155238609
 H         -2.0264488897       -8.6202989028       -0.9918137691
 H          0.2611907755       -8.3774827296       -0.1544318787
 H          1.1811962961       -6.1587301830        0.4130738031
 H          1.0744310658       -4.4748002349        2.2668357056
 H          3.1913048861       -3.3926012245        2.9610949356
 H          6.8182190191       -1.4261365115        2.4923110774
 H          8.6958421088       -0.2099298134        3.5358843785
 H          8.9455705200        2.2193749284        3.1740699306
 H          7.2930054982        3.4293833916        1.7958558030
 H          5.4233500532        2.2203341523        0.7603466415
 H          7.0112206556        0.1055553671       -0.8249151203
 H          8.0441962564        1.4922133461       -2.5607284032
 H          6.6424759805        2.8510235781       -4.0704781169
 H          4.1826448719        2.7810773865       -3.8502274873
 H          3.1458390446        1.4026052881       -2.0823426293
 H          0.9134946623       -1.9294900833       -1.1740897768
 H         -0.9383145552       -1.0966579150        0.3629196924
 H         -3.9354210008        2.5266963831       -1.2479090926
 H         -6.1431866175        3.5228733390       -0.8802909223
 H         -7.4973629066        4.4430584686        0.8210954995
 H         -9.7264880476        5.4289922544        1.1260204917
  98
  -150.971585000000       0.151978726801572      !
 C        -10.7684280699        3.5633521400        0.9957639547
 C        -10.6616177925        2.2326864705        0.6270749991
 C         -9.4200230139        1.6746557780        0.3873431526
 C         -8.2624754387        2.4414359617        0.5054328575
 C         -6.9429546828        1.8524357769        0.2471075424
 C         -6.6284554746        0.5708023135        0.6980395830
 C         -5.3877604851        0.0172390725        0.4671395416
 C         -4.4190576503        0.7265896235       -0.2466285218
 N         -3.1611544421        0.1907083555       -0.4986145559
 C         -2.0328311488        1.0298474567       -0.5000967237
 C         -1.8546755526        1.9882844948        0.4954129893
 C         -0.6801801858        2.7091897257        0.5580557920
 C          0.3341492159        2.5117098349       -0.3768971979
 C          1.6124408260        3.2271963248       -0.2518644066
 C          2.1964128421        3.8599396502       -1.3453665913
 C          3.4046234959        4.5191470712       -1.2110592248
 C          4.0487914501        4.5488993561        0.0139183807
 C          3.4773859889        3.9192682530        1.1079052862
 C          2.2670830576        3.2652440013        0.9769145824
 C          0.1217463292        1.5980399764       -1.4070321379
 C         -1.0416856958        0.8608472531       -1.4660535367
 C         -2.9358686897       -1.1860876869       -0.5849312303
 C         -3.8846941179       -2.0423994058       -1.1683371663
 C         -3.6708393709       -3.4024409243       -1.2395537089
 C         -2.4761980287       -3.9307979727       -0.7612852152
 C         -1.9150294184       -5.2472324563       -0.6696952215
 C         -2.3669413097       -6.5104766533       -1.0314936838
 C         -1.5399653917       -7.5950137485       -0.8201332034
 C         -0.2713876614       -7.4350579201       -0.2642743219
 C          0.2024034645       -6.1910790230        0.1046984005
 C         -0.6290024132       -5.0983782183       -0.0911718790
 N         -0.3985726853       -3.7655042618        0.1714572654
 C          0.8060993914       -3.1712567383        0.5865593681
 C          1.4281057234       -3.5512108364        1.7656931261
 C          2.6028136249       -2.9280105005        2.1644155275
 C          3.1847364741       -1.9225838886        1.3960709024
 N          4.2838065770       -1.2694199381        1.7569591960
 C          4.8667371152       -0.3577487171        0.9857672695
 C          6.0050239055        0.3731684243        1.5325784692
 C          6.8782092968       -0.2789037730        2.4056440462
 C          7.9514984749        0.3955243925        2.9533833888
 C          8.1665969648        1.7303532378        2.6496571076
 C          7.2882790078        2.3916335617        1.8046852309
 C          6.2138264247        1.7245139596        1.2516840009
 C          4.3394023995       -0.1206976056       -0.3042019841
 C          5.0377780066        0.6438360475       -1.3344004594
 C          6.4215461634        0.5629617898       -1.4981916501
 C          7.0424473045        1.2560524391       -2.5178598473
 C          6.2987341187        2.0309814093       -3.3948526676
 C          4.9220451218        2.0932774971       -3.2557425132
 C          4.2946676002        1.4009918319       -2.2394531575
 N          3.1767343491       -0.6703831661       -0.6340876880
 C          2.5525201744       -1.5507684053        0.1453789088
 C          1.3691227877       -2.1748913991       -0.2176764020
 C         -1.5041475342       -3.0533733089       -0.2257257069
 C         -1.7361997485       -1.6979250459       -0.0979293462
 C         -4.7295767681        2.0106643133       -0.7025957812
 C         -5.9666243005        2.5621810728       -0.4517128416
 C         -8.3825256294        3.7799956495        0.8743413804
 C         -9.6244972281        4.3340516187        1.1204158411
 H        -11.7387559539        3.9979150419        1.1853141819
 H        -11.5509976064        1.6278780762        0.5243749072
 H         -9.3443934369        0.6403052927        0.0844871684
 H         -7.3577767651        0.0142874846        1.2681304355
 H         -5.1525621832       -0.9631092844        0.8538955446
 H         -2.6279571337        2.1365195428        1.2352230281
 H         -0.5405257082        3.4343285076        1.3464306026
 H          1.6891316044        3.8482147725       -2.2996599773
 H          3.8475636934        5.0111146440       -2.0645076478
 H          4.9945842403        5.0603792530        0.1161245055
 H          3.9787196123        3.9338744755        2.0649567671
 H          1.8309272615        2.7598015803        1.8266017955
 H          0.8891765228        1.4385447898       -2.1494410347
 H         -1.1872672606        0.1308563551       -2.2488688767
 H         -4.7932599142       -1.6178469035       -1.5681026079
 H         -4.4185604735       -4.0475959021       -1.6751943545
 H         -3.3447232892       -6.6351443375       -1.4721260182
 H         -1.8736667503       -8.5848978644       -1.0938617732
 H          0.3553183959       -8.3030638033       -0.1219317499
 H          1.1902273071       -6.0693593550        0.5224517949
 H          0.9862072537       -4.3174838534        2.3839861741
 H          3.0771992840       -3.1952845752        3.0953144735
 H          6.7031301216       -1.3186736853        2.6374490129
 H          8.6254578209       -0.1219543820        3.6207568474
 H          9.0089364896        2.2553805303        3.0753292675
 H          7.4403158513        3.4373416401        1.5793590561
 H          5.5239505289        2.2507254301        0.6093764988
 H          7.0064168077       -0.0560573802       -0.8342143148
 H          8.1138178716        1.1846363001       -2.6362982549
 H          6.7904502085        2.5724918181       -4.1894837213
 H          4.3345891343        2.6810461262       -3.9461812278
 H          3.2235997217        1.4389666966       -2.1227847802
 H          0.9133070728       -1.9135318137       -1.1594775313
 H         -1.0087864890       -1.0566542760        0.3744895035
 H         -3.9913147133        2.5656938235       -1.2628266855
 H         -6.1936907826        3.5483005205       -0.8291666355
 H         -7.4925877884        4.3817217030        0.9895732983
 H         -9.7012739215        5.3713349699        1.4128562264
  98
  -150.970815230000       6.730092040200868E-002 !
 C         -9.7481128485        4.2655039600       -1.9962473905
 C         -9.8031086333        2.8892888466       -1.8511229807
 C         -8.6840810568        2.1873303193       -1.4448724198
 C         -7.4890836673        2.8507100075       -1.1712517532
 C         -6.3033559932        2.1052641887       -0.7327550617
 C         -5.4607880903        2.6140035616        0.2560126795
 C         -4.3581304701        1.9080346659        0.6835794843
 C         -4.0519426479        0.6630676005        0.1266856912
 N         -2.9366068782       -0.0327784831        0.5756951455
 C         -1.7753768189        0.6760301695        0.9454879629
 C         -1.0811667934        0.3068772111        2.0971754197
 C          0.1326320425        0.8873791881        2.3923581217
 C          0.6855604301        1.8574943805        1.5560407578
 C          1.9976744852        2.4367535135        1.8705889429
 C          3.0325198186        1.6254757811        2.3321381837
 C          4.2558676457        2.1722181107        2.6701629154
 C          4.4652300546        3.5367235248        2.5551713845
 C          3.4464321418        4.3500712900        2.0881465120
 C          2.2241328445        3.8047434965        1.7431379187
 C         -0.0374494909        2.2577950394        0.4341674140
 C         -1.2531756203        1.6776376537        0.1301378080
 C         -2.8277834348       -1.4243078604        0.5022962781
 C         -3.9354843986       -2.2715449754        0.6716512800
 C         -3.7961364272       -3.6421717638        0.6071666174
 C         -2.5401014829       -4.1981545595        0.3803026274
 C         -2.0241760351       -5.5329918103        0.2913050172
 C         -2.6092768141       -6.7919537955        0.3518624961
 C         -1.8034072751       -7.9039669390        0.2167209250
 C         -0.4304748798       -7.7756284919        0.0104073341
 C          0.1764877065       -6.5364736303       -0.0549698428
 C         -0.6235367595       -5.4134800599        0.0994307972
 N         -0.2792680709       -4.0803160228        0.0513123401
 C          1.0003707524       -3.5008181906        0.0567987873
 C          1.9887753251       -3.9446955588        0.9244310934
 C          3.1932639497       -3.2597631334        1.0198153625
 C          3.4093038866       -2.0786676729        0.3164220358
 N          4.5315260050       -1.3682120845        0.3885539968
 C          4.6998791597       -0.2165419826       -0.2499325812
 C          6.0301895012        0.3839523605       -0.2030465094
 C          6.5928406808        1.0102966982       -1.3161536604
 C          7.8702632671        1.5296286533       -1.2506524170
 C          8.6102200883        1.4275440027       -0.0823956029
 C          8.0703333455        0.7803350593        1.0172645247
 C          6.7946878028        0.2551103218        0.9574785329
 C          3.6140220962        0.3316226695       -0.9729309552
 C          3.5531951847        1.6956676672       -1.4842140570
 C          4.2041668195        2.7621563748       -0.8625081014
 C          4.0505745866        4.0479020094       -1.3399664274
 C          3.2426897653        4.3000480054       -2.4378818022
 C          2.5775721691        3.2503227737       -3.0515542850
 C          2.7260859244        1.9620078224       -2.5798542872
 N          2.5273276698       -0.4162153535       -1.1447755510
 C          2.3676663627       -1.6019837502       -0.5697168595
 C          1.2242433621       -2.3710613639       -0.7349080832
 C         -1.4285645895       -3.3380744635        0.2216222347
 C         -1.5657713771       -1.9667061109        0.2796867749
 C         -4.8775709781        0.1600447675       -0.8817189646
 C         -5.9857745364        0.8679740153       -1.2933295613
 C         -7.4465688445        4.2359752536       -1.3196925617
 C         -8.5655125148        4.9354637710       -1.7305339038
 H        -10.6226392177        4.8132382219       -2.3147937297
 H        -10.7238829480        2.3613641955       -2.0531337773
 H         -8.7398139953        1.1161496432       -1.3158274000
 H         -5.6932792390        3.5623121783        0.7175549207
 H         -3.7261715641        2.3068023190        1.4637957317
 H         -1.4945847908       -0.4560660902        2.7405850462
 H          0.6591531076        0.5942803633        3.2884244067
 H          2.8801975878        0.5582533850        2.4079548958
 H          5.0515134500        1.5337459990        3.0240735791
 H          5.4208936873        3.9620193278        2.8245989404
 H          3.6035932948        5.4150934832        1.9975961198
 H          1.4268150171        4.4458137634        1.3963506813
 H          0.3830098246        2.9957692009       -0.2330524074
 H         -1.7894027464        1.9688576462       -0.7614405073
 H         -4.9027076619       -1.8378860633        0.8759258450
 H         -4.6553502038       -4.2798850095        0.7500707923
 H         -3.6741798070       -6.8921782167        0.4991947512
 H         -2.2390105891       -8.8909276574        0.2633435611
 H          0.1708599995       -8.6653651533       -0.1043817982
 H          1.2374083766       -6.4432465997       -0.2307473310
 H          1.8121694993       -4.8088339331        1.5461138127
 H          3.9747611945       -3.6143290207        1.6731451108
 H          6.0284138097        1.0795560761       -2.2342634176
 H          8.2960705217        2.0115182238       -2.1186508646
 H          9.6074024243        1.8398544890       -0.0346703632
 H          8.6496089306        0.6817155065        1.9241559620
 H          6.3711899704       -0.2642667371        1.8037974940
 H          4.8155662457        2.5869911853        0.0082245794
 H          4.5596237568        4.8615462968       -0.8442498846
 H          3.1264746117        5.3082707744       -2.8072641546
 H          1.9375693550        3.4391853091       -3.9015447456
 H          2.2056461464        1.1406337258       -3.0487382149
 H          0.4932791048       -2.0530125596       -1.4602857180
 H         -0.7131817736       -1.3198023209        0.1663876850
 H         -4.6317808406       -0.7802149168       -1.3521922488
 H         -6.6004093722        0.4708868117       -2.0877963458
 H         -6.5226810080        4.7635459472       -1.1318582868
 H         -8.5152843344        6.0085727308       -1.8458967890
