  91
       -144.83888292
 N         -9.5271093123       -6.9870441487        0.0600218833
 C         -8.5793071960       -6.3399550262        0.0731128566
 C         -7.4159151827       -5.5429323563        0.0922210491
 C         -7.4150645415       -4.3154789620        0.7602345317
 C         -6.2755235751       -3.5421617117        0.7739820755
 C         -5.1078058843       -3.9681935586        0.1333071559
 C         -3.8958377493       -3.1479199221        0.1563561564
 C         -2.6368222782       -3.7436847448        0.2772241464
 C         -1.5071957199       -2.9626362741        0.2902913259
 C         -1.6010254558       -1.5701803658        0.1814376330
 C         -2.8612039302       -0.9351925676        0.0794363488
 C         -3.9847163644       -1.7579830368        0.0614287013
 C         -2.9452208683        0.5233208962        0.0115652890
 C         -4.1627550853        1.1737839498       -0.0043034145
 C         -4.2977038598        2.5733437301       -0.0211056874
 C         -5.5997133725        3.1981114570       -0.0502366614
 C         -6.7037247479        2.5594751067       -0.6471326264
 C         -7.9400834005        3.1535013137       -0.6850806946
 C         -8.1323620928        4.4192808708       -0.1137848801
 C         -9.3972654016        5.0299589198       -0.1464343657
 N        -10.4322358937        5.5302096387       -0.1735874479
 C         -7.0457057048        5.0687948664        0.4888118149
 C         -5.8107636691        4.4714359703        0.5124032277
 C         -3.1113144626        3.3398274505        0.0055481856
 C         -1.8899287275        2.7409504143        0.0004279529
 C         -1.7471903708        1.3259653057       -0.0151012346
 C         -0.5230920084        0.6630534125       -0.0179446777
 C         -0.4368540584       -0.7602356848        0.1434744530
 N          0.8294425932       -1.1504153000        0.2251477432
 C          1.5853242661       -0.0591824405        0.0814651297
 C          2.9958907637       -0.1333458355        0.0246285509
 C          3.8446008558        0.8670544475       -0.5068447794
 C          5.2028636389        0.7053234314       -0.5139144936
 C          5.8009337729       -0.4606834535       -0.0051831416
 N          7.1792878493       -0.6018135952        0.0025391622
 C          7.9999005628        0.5176619504        0.1829647119
 C          9.1987614452        0.6345658095       -0.5224865373
 C         10.0048400452        1.7405685561       -0.3402775127
 C          9.6309307171        2.7444870853        0.5395510208
 C          8.4413899969        2.6324930365        1.2421568453
 C          7.6293427947        1.5290269662        1.0708697253
 C          7.7640849447       -1.8613717274       -0.1763426695
 C          8.9056974293       -2.2160618999        0.5437804033
 C          9.4822098084       -3.4572007242        0.3604063087
 C          8.9319760320       -4.3610553427       -0.5349785707
 C          7.7975648689       -4.0130607765       -1.2511952650
 C          7.2147789653       -2.7731384907       -1.0788857704
 C          4.9633637726       -1.4837416573        0.4813651703
 C          3.6080904365       -1.3253487949        0.4916312782
 N          0.7868225705        1.0890766961       -0.0612392716
 C          1.2653656447        2.4058889885       -0.1425307200
 C          2.0223393410        2.9310001587        0.9029931676
 C          2.5167737910        4.2181796722        0.8128823655
 C          2.2609995507        4.9881294773       -0.3108583541
 C          1.5060717709        4.4667186809       -1.3504462907
 C          1.0088589468        3.1796618533       -1.2734651152
 C         -5.1212287203       -5.1997261421       -0.5290801168
 C         -6.2565194706       -5.9784841130       -0.5556941269
 H         -8.3106368188       -3.9838721531        1.2651929629
 H         -6.2765554557       -2.6058972499        1.3123848376
 H         -2.5571344375       -4.8152194525        0.3831939902
 H         -0.5233986296       -3.3961060645        0.3794634995
 H         -4.9678391278       -1.3321343227       -0.0581210073
 H         -5.0708385278        0.5958839602        0.0441470986
 H         -6.5704780710        1.5989456852       -1.1221316590
 H         -8.7736081494        2.6563257582       -1.1601893405
 H         -7.1942951184        6.0405220548        0.9375282236
 H         -4.9943884788        4.9758924023        1.0068512865
 H         -3.1705389406        4.4174495130       -0.0038857316
 H         -1.0036646058        3.3536076742        0.0246423994
 H          3.4259881529        1.7498429689       -0.9605526678
 H          5.8311599541        1.4710314623       -0.9453332379
 H          9.4839103868       -0.1416622918       -1.2172436175
 H         10.9278683318        1.8235558904       -0.8942059118
 H         10.2631761969        3.6079801232        0.6772979076
 H          8.1475717225        3.4068460891        1.9348735292
 H          6.7092995276        1.4344944325        1.6284948074
 H          9.3270885995       -1.5161363826        1.2502509248
 H         10.3624754653       -3.7239177670        0.9257716554
 H          9.3852607638       -5.3303294990       -0.6740206395
 H          7.3682265289       -4.7089227155       -1.9561761107
 H          6.3404595879       -2.4949279546       -1.6485268468
 H          5.4086257559       -2.3861471209        0.8734198836
 H          2.9641290528       -2.0968273114        0.8812778628
 H          2.2165699783        2.3220268754        1.7734777346
 H          3.1006941331        4.6241831212        1.6251952896
 H          2.6491354630        5.9929563563       -0.3774376199
 H          1.3080596693        5.0634425113       -2.2281807485
 H          0.4240618827        2.7626597345       -2.0803682096
 H         -4.2352388980       -5.5330008371       -1.0487966239
 H         -6.2622659604       -6.9249889016       -1.0764159151
