  45
        -70.49942749
 C          7.5806288254        1.6197190002        0.5065867248
 O          7.0837376409        0.5055983518       -0.1924851778
 C          5.7375091966        0.3027506924       -0.2141775011
 C          5.3226357741       -0.8406278997       -0.9364483379
 C          4.0032925723       -1.1631403617       -1.0283194767
 C          3.0159499935       -0.3680742686       -0.4042646669
 C          1.6485678506       -0.6886878939       -0.4695599866
 C          0.7051865882        0.0943071300        0.1589546214
 C         -0.7159665549       -0.1997556687        0.1205939954
 N         -1.6478209483        0.7290867955        0.0436971903
 C         -2.8519596421        0.1198628338        0.0111621328
 C         -4.0751056970        0.8970984274       -0.0839795327
 C         -4.0218354880        2.1669078069       -0.6607962586
 C         -5.1617484446        2.9377902590       -0.7678111524
 C         -6.3745660326        2.4575501682       -0.2994819807
 C         -6.4337601599        1.2072410379        0.2929144445
 C         -5.2946420526        0.4322921108        0.4058221810
 C         -2.6638216400       -1.2660413177        0.0670039231
 C         -3.4869909462       -2.4038168316        0.0069751051
 C         -2.9334019849       -3.6442794315        0.1159501029
 C         -1.5358301485       -3.7784621874        0.3134550804
 C         -0.7370077008       -2.6843578965        0.3249277729
 N         -1.2784971381       -1.4460793301        0.1511947611
 C          1.1202626744        1.2641251333        0.8350308541
 C          2.4402603130        1.5965745304        0.9083711050
 C          3.4288674997        0.7864946398        0.3083514838
 C          4.7999035159        1.1019061546        0.3921704124
 H          7.3235525367        1.5729732774        1.5698557032
 H          8.6630516991        1.5803847185        0.3955580057
 H          7.2069184318        2.5579408631        0.0839691403
 H          6.0868959252       -1.4409851995       -1.4045038236
 H          3.6946922188       -2.0396417424       -1.5799407086
 H          1.3549380570       -1.5466399365       -1.0582054257
 H         -3.0702138743        2.5275222821       -1.0193194907
 H         -5.1082530989        3.9178905206       -1.2196948809
 H         -7.2679412647        3.0586313862       -0.3864501624
 H         -7.3736096804        0.8363688713        0.6768588820
 H         -5.3477549308       -0.5245778700        0.9026730311
 H         -4.5470916552       -2.2733230362       -0.1356986826
 H         -3.5471078993       -4.5295611451        0.0682264548
 H         -1.1046753969       -4.7565695581        0.4519636580
 H          0.3277631986       -2.7319723499        0.4884438557
 H          0.3598981499        1.8813185339        1.2873431244
 H          2.7489727913        2.4901216848        1.4321260816
 H          5.0813874926        1.9852296303        0.9446201655
  45
        -70.49886498
 C          7.7457228919        0.5739899628        0.5023727449
 O          6.9271269114        1.1703539835       -0.4729567539
 C          5.5863005767        0.9383978909       -0.4238608746
 C          4.8379849988        1.5727658088       -1.4439408299
 C          3.4870339394        1.4233097318       -1.5107412060
 C          2.7963387276        0.6302546173       -0.5661027725
 C          1.4053264644        0.4486034459       -0.6146795320
 C          0.7553363654       -0.3413129673        0.3090145565
 C         -0.6876432985       -0.4871696465        0.2276729481
 N         -1.5017311399        0.4910645653       -0.1141403434
 C         -2.7693039904        0.0342315156       -0.0300321467
 C         -3.8975947816        0.9041078300       -0.3116251881
 C         -3.7230781766        1.9763252047       -1.1872627989
 C         -4.7728893385        2.8249176190       -1.4760828976
 C         -6.0138884490        2.6221071987       -0.8934590840
 C         -6.1916216256        1.5726887179       -0.0074860074
 C         -5.1434987855        0.7208032654        0.2862895002
 C         -2.7459802974       -1.3126130132        0.3498583702
 C         -3.6976758127       -2.3340856392        0.5095126682
 C         -3.2886157889       -3.5954787646        0.8245414133
 C         -1.9055462510       -3.8771604310        0.9560478866
 C         -0.9858719957       -2.8973245717        0.7827987537
 N         -1.3913133462       -1.6254096825        0.5100392969
 C          1.5016379326       -0.9430555998        1.3459891210
 C          2.8555846433       -0.7802565785        1.4129999871
 C          3.5455398553       -0.0051540081        0.4578421728
 C          4.9443187107        0.1632116267        0.5094948881
 H          7.6881369867       -0.5183681690        0.4596591819
 H          8.7615057209        0.8905165096        0.2706807203
 H          7.4817924920        0.9123358352        1.5093192960
 H          5.3786696775        2.1733265894       -2.1583982464
 H          2.9211855920        1.9103376847       -2.2910103950
 H          0.8299712135        0.9325382834       -1.3888834762
 H         -2.7503002358        2.1254804572       -1.6292899475
 H         -4.6264218375        3.6494862645       -2.1589221503
 H         -6.8363887430        3.2845899864       -1.1207097217
 H         -7.1524096224        1.4219775934        0.4641790833
 H         -5.2842277510       -0.0702650782        1.0075188220
 H         -4.7391732049       -2.1046526869        0.3548048038
 H         -4.0036705185       -4.3926044641        0.9509373604
 H         -1.5811834925       -4.8818888875        1.1732542354
 H          0.0774320982       -3.0730116679        0.8198281122
 H          0.9907723364       -1.5016447885        2.1172994700
 H          3.4174797726       -1.2390967120        2.2147082462
 H          5.4841415352       -0.3325648388        1.3017125186
  45
        -70.49781600
 C          8.0372507290        0.2240193057       -0.5118832898
 O          6.9959960187        0.9468478541        0.0966408970
 C          5.7121213038        0.5175581604       -0.0651696109
 C          5.3458151942       -0.6256883446       -0.8023272666
 C          4.0299990841       -0.9838225411       -0.9071729346
 C          3.0117490734       -0.2321528245       -0.2898312313
 C          1.6536510472       -0.5916308436       -0.3835539258
 C          0.6791524418        0.1572500921        0.2358087368
 C         -0.7341580236       -0.1660739169        0.1615654802
 N         -1.6813745539        0.7466569160        0.0786356359
 C         -2.8728816352        0.1165381280        0.0098691241
 C         -4.1076212928        0.8730019388       -0.1022104591
 C         -4.0651154121        2.1501406129       -0.6634768524
 C         -5.2163238972        2.9015950461       -0.7864142528
 C         -6.4297672607        2.3943685169       -0.3492384497
 C         -6.4787871173        1.1364675999        0.2278963944
 C         -5.3284464042        0.3806479062        0.3561298100
 C         -2.6604650857       -1.2663623083        0.0483531557
 C         -3.4619082747       -2.4172749905       -0.0435218192
 C         -2.8887423240       -3.6492446603        0.0605432878
 C         -1.4930354631       -3.7615141752        0.2832823875
 C         -0.7141288866       -2.6538458153        0.3256875295
 N         -1.2740546760       -1.4227523839        0.1595337291
 C          1.0495500872        1.3288720883        0.9392088378
 C          2.3560006366        1.6977305450        1.0437845820
 C          3.3791933913        0.9261238795        0.4460672075
 C          4.7337637162        1.2744340988        0.5440794153
 H          7.9330915057        0.2046046014       -1.6016087867
 H          8.9527286693        0.7524242219       -0.2500008105
 H          8.0936371242       -0.8015285458       -0.1323228049
 H          6.0980166542       -1.2262081757       -1.2895107883
 H          3.7581882742       -1.8637502673       -1.4738730557
 H          1.3950040253       -1.4487019423       -0.9896340296
 H         -3.1127008401        2.5321264206       -0.9970968071
 H         -5.1711301748        3.8876842699       -1.2258611699
 H         -7.3318482200        2.9804056474       -0.4483941107
 H         -7.4197004058        0.7445947848        0.5878091417
 H         -5.3742344203       -0.5821420062        0.8422467319
 H         -4.5212451473       -2.3030217944       -0.2048569211
 H         -3.4857915949       -4.5443320394       -0.0094900741
 H         -1.0473513078       -4.7338251966        0.4167324832
 H          0.3480137219       -2.6849592016        0.5089089018
 H          0.2622930732        1.9161615519        1.3854102762
 H          2.6321838907        2.5899640334        1.5865551999
 H          5.0260275417        2.1499072372        1.1029076399
  45
        -70.49771774
 C          8.0575870697        0.1079854827        0.2994479552
 O          7.0064555024        0.8936047052       -0.2060616077
 C          5.7211281773        0.4913389103        0.0061211883
 C          5.3614225379       -0.6533926730        0.7440822649
 C          4.0439142199       -0.9871043266        0.8965458146
 C          3.0180629204       -0.2122582392        0.3220757906
 C          1.6594937197       -0.5611247332        0.4436139967
 C          0.6778158486        0.1942576123       -0.1567628631
 C         -0.7330414307       -0.1378678904       -0.0876633075
 N         -1.6904449182        0.7674890745       -0.0388079729
 C         -2.8768941009        0.1276803696        0.0209709406
 C         -4.1238862256        0.8703696000        0.0745720281
 C         -4.1185351690        2.1659282568        0.5933501673
 C         -5.2836361180        2.9043373728        0.6485888353
 C         -6.4735311966        2.3657263701        0.1850548044
 C         -6.4852619222        1.0880911483       -0.3492070224
 C         -5.3210559989        0.3454653853       -0.4102271246
 C         -2.6512869056       -1.2538273399        0.0163280869
 C         -3.4440239289       -2.4091040283        0.1272063076
 C         -2.8599826825       -3.6382440116        0.0551688014
 C         -1.4623620394       -3.7425152556       -0.1580049733
 C         -0.6923405050       -2.6292099411       -0.2145943027
 N         -1.2623084259       -1.3997470704       -0.0716099612
 C          1.0419019063        1.3754492291       -0.8482828719
 C          2.3478330262        1.7407668770       -0.9691122743
 C          3.3787684158        0.9503614831       -0.4098096811
 C          4.7347533902        1.2778552707       -0.5505064178
 H          8.0387851095       -0.9060819934       -0.1137036884
 H          8.9733930139        0.6054530629       -0.0165517711
 H          8.0361055142        0.0567714836        1.3931402773
 H          6.1202475669       -1.2746346100        1.1937669202
 H          3.7766911487       -1.8680774052        1.4634408330
 H          1.4089289844       -1.4205344812        1.0497329620
 H         -3.1842335487        2.5733175082        0.9470537546
 H         -5.2678698216        3.9049799363        1.0555868901
 H         -7.3863777911        2.9415986754        0.2312665261
 H         -7.4071274324        0.6701372320       -0.7287090177
 H         -5.3358987637       -0.6327916751       -0.8661712104
 H         -4.5053053110       -2.3003815618        0.2789108559
 H         -3.4495752939       -4.5367993438        0.1428848153
 H         -1.0076947441       -4.7130255964       -0.2725284190
 H          0.3702282723       -2.6562579690       -0.3944360828
 H          0.2492352198        1.9711578300       -1.2731119405
 H          2.6187465264        2.6407084324       -1.5017718310
 H          5.0222833098        2.1560812689       -1.1075761337
  45
        -70.49756708
 C          7.7300187085        1.6920810014       -0.7847048507
 O          6.9684735260        0.8471516554        0.0424456211
 C          5.6165918878        0.8002501268       -0.1276120791
 C          4.9110058127        1.5586300408       -1.0835131992
 C          3.5522940843        1.4459539927       -1.1854839086
 C          2.8219072829        0.5776317699       -0.3504529866
 C          1.4269155513        0.4361759983       -0.4495074986
 C          0.7397344721       -0.4328123886        0.3678996211
 C         -0.7032519512       -0.5402762679        0.2364611324
 N         -1.4921955332        0.4827568915       -0.0226435986
 C         -2.7661124774        0.0359037832       -0.0578000626
 C         -3.8701673980        0.9453415740       -0.3095553341
 C         -5.0670222730        0.5211027909       -0.8846593649
 C         -6.0960498619        1.4188464683       -1.0991724758
 C         -5.9458590969        2.7517294815       -0.7546077018
 C         -4.7499141322        3.1875754976       -0.2066010216
 C         -3.7202459568        2.2947743108        0.0130583864
 C         -2.7748921168       -1.3400820692        0.1969141207
 C         -3.7541868403       -2.3361639662        0.3533624272
 C         -3.3755801934       -3.6247219825        0.5843753118
 C         -1.9981679888       -3.9561879289        0.6433583213
 C         -1.0551365219       -2.9893370560        0.5372030442
 N         -1.4309737155       -1.6901761873        0.3694669802
 C          1.4472011596       -1.1600901020        1.3535219795
 C          2.8006348167       -1.0397084372        1.4695594604
 C          3.5323563890       -0.1839390571        0.6164598166
 C          4.9260346821       -0.0533189803        0.7056530519
 H          8.7636020321        1.5568935153       -0.4690753746
 H          7.6373551372        1.4151437804       -1.8400835323
 H          7.4500934609        2.7429300058       -0.6574530837
 H          5.4373859879        2.2333965784       -1.7405177599
 H          3.0169223577        2.0305775244       -1.9196705705
 H          0.8807543017        1.0131530538       -1.1802545685
 H         -5.1831082451       -0.5070082774       -1.1928920915
 H         -7.0196299690        1.0775560291       -1.5448696463
 H         -6.7540965342        3.4488731634       -0.9212496584
 H         -4.6237347739        4.2291078604        0.0519661544
 H         -2.7828473632        2.6195692785        0.4370015312
 H         -4.7938290552       -2.0584595139        0.2972756385
 H         -4.1116062214       -4.4027786824        0.7100053327
 H         -1.6984388821       -4.9830328652        0.7759635465
 H          0.0038225115       -3.1919411659        0.5602700836
 H          0.9027068704       -1.7843779731        2.0476960270
 H          3.3345089870       -1.5935485567        2.2285389957
 H          5.4766451059       -0.6259858242        1.4360325683
  45
        -70.49754918
 C          8.0710450553        0.1258146905       -0.2191007338
 O          7.0034271262        0.9338318597        0.2103118393
 C          5.7257562857        0.5052430914        0.0027454730
 C          5.3888526969       -0.6959634500       -0.6511317011
 C          4.0767398643       -1.0492329538       -0.8076609937
 C          3.0335256421       -0.2398387875       -0.3183093675
 C          1.6795164792       -0.6070827906       -0.4422305725
 C          0.6812095862        0.1812429656        0.0837859093
 C         -0.7285106836       -0.1568548086        0.0305051524
 N         -1.6808558361        0.7539955230       -0.0412697280
 C         -2.8721021236        0.1232008480       -0.0454553032
 C         -4.1174788647        0.8698937559       -0.0941565361
 C         -4.1414950266        2.1142724264       -0.7240539073
 C         -5.3059062668        2.8549342726       -0.7676309951
 C         -6.4634214659        2.3698337075       -0.1796742102
 C         -6.4443906710        1.1434439038        0.4635085495
 C         -5.2815138241        0.3977093052        0.5103641449
 C         -2.6578791472       -1.2579816125        0.0179309005
 C         -3.4685909236       -2.4048922986       -0.0222155778
 C         -2.8977965608       -3.6376336590        0.0849849253
 C         -1.4959473701       -3.7494136364        0.2640087023
 C         -0.7110904823       -2.6447714628        0.2579548589
 N         -1.2684656484       -1.4136843476        0.0812734914
 C          1.0254803455        1.4138975140        0.6924299718
 C          2.3254732502        1.7992265135        0.8088924051
 C          3.3723334878        0.9769781222        0.3312173559
 C          4.7226181587        1.3247127555        0.4754110662
 H          8.0630061428       -0.0140209306       -1.3050641005
 H          8.9759361273        0.6609691180        0.0649263089
 H          8.0618893092       -0.8516832161        0.2747030401
 H          6.1610563889       -1.3449702080       -1.0339673020
 H          3.8278474257       -1.9726904489       -1.3118283689
 H          1.4490002937       -1.5100909439       -0.9897855136
 H         -3.2320167002        2.4807857497       -1.1744048101
 H         -5.3151726129        3.8146316992       -1.2640707417
 H         -7.3746720333        2.9490217094       -0.2138599340
 H         -7.3394227674        0.7705460429        0.9411499498
 H         -5.2672226752       -0.5386990213        1.0480218348
 H         -4.5323485635       -2.2845147489       -0.1474322426
 H         -3.4996064925       -4.5316982143        0.0518034010
 H         -1.0489816104       -4.7202589369        0.4041015212
 H          0.3548151964       -2.6815703041        0.4133494284
 H          0.2201016469        2.0322836166        1.0564053612
 H          2.5794275090        2.7394693779        1.2762361002
 H          4.9922574801        2.2454448725        0.9692261636
  45
        -70.49752476
 C          7.7288197191        1.8346555208        0.4129594885
 O          6.9730304887        0.7984877729       -0.1638697342
 C          5.6190075071        0.8020100874       -0.0049817706
 C          4.9078023823        1.7823324210        0.7158092929
 C          3.5470121611        1.7054040323        0.8239391119
 C          2.8205862431        0.6553065457        0.2290171509
 C          1.4230339599        0.5502799916        0.3413655685
 C          0.7409663951       -0.4991314296       -0.2307003901
 C         -0.7045505268       -0.5703264186       -0.0950495240
 N         -1.5024772533        0.4752793646       -0.1604708315
 C         -2.7745034890        0.0462448055       -0.0079156580
 C         -3.8849032916        0.9812667383       -0.0511272989
 C         -5.0899667653        0.7389118655        0.6064292049
 C         -6.1219390138        1.6557449322        0.5344551826
 C         -5.9674120155        2.8292988576       -0.1843729971
 C         -4.7645411063        3.0897319245       -0.8215480760
 C         -3.7316963185        2.1765068195       -0.7553025722
 C         -2.7710489147       -1.3431335939        0.1587343158
 C         -3.7399517666       -2.3515827696        0.3011920414
 C         -3.3476807367       -3.6458869884        0.4683207037
 C         -1.9670568225       -3.9662880699        0.5151572320
 C         -1.0335823650       -3.0015827271        0.3338481547
 N         -1.4228773298       -1.7150552746        0.1100545321
 C          1.4550238213       -1.4621062393       -0.9814794234
 C          2.8101548851       -1.3796522089       -1.1088020634
 C          3.5371025867       -0.3332754502       -0.4982682767
 C          4.9324736047       -0.2347474189       -0.5998817727
 H          7.6336422601        1.8458832264        1.5037886714
 H          8.7637978716        1.6250208617        0.1469582419
 H          7.4458949672        2.8132753332        0.0119615802
 H          5.4312416077        2.5994830305        1.1869990142
 H          3.0073565928        2.4601316605        1.3774065116
 H          0.8727477368        1.3003937010        0.8889255892
 H         -5.2106353612       -0.1542359333        1.2005960313
 H         -7.0516207312        1.4564434995        1.0485218802
 H         -6.7775668722        3.5418092535       -0.2389361176
 H         -4.6349413687        4.0098997037       -1.3732827707
 H         -2.7889366860        2.3658660734       -1.2446925421
 H         -4.7826659626       -2.0818833951        0.2661665075
 H         -4.0757054174       -4.4335611847        0.5795501319
 H         -1.6577770497       -4.9831827543        0.6943119442
 H          0.0277013845       -3.1893076696        0.3738612466
 H          0.9132683705       -2.2456628864       -1.4922399373
 H          3.3495825113       -2.1134721986       -1.6904475754
 H          5.4882346982       -0.9779590618       -1.1507145340
  45
        -70.49746244
 C          7.6785193788        1.7805712735       -0.8727670620
 O          6.9450585167        0.9231309803       -0.0334152571
 C          5.5968971227        0.8210371645       -0.2102719460
 C          4.8770815745        1.4944907859       -1.2178881920
 C          3.5231648384        1.3364127855       -1.3194031319
 C          2.8112214401        0.5079729767       -0.4296022749
 C          1.4188899944        0.3387547590       -0.5121655076
 C          0.7450431592       -0.4768405682        0.3698022618
 C         -0.6991944944       -0.5822351905        0.2631250317
 N         -1.4699602550        0.4295432519       -0.0829862119
 C         -2.7552583908        0.0221314105       -0.0244450550
 C         -3.8396402889        0.9411118018       -0.3219110893
 C         -5.1084100803        0.8047813566        0.2388549474
 C         -6.1096181479        1.7059412677       -0.0714044385
 C         -5.8619198510        2.7577311701       -0.9372895043
 C         -4.5977377879        2.9133537984       -1.4831818411
 C         -3.5946220621        2.0160152461       -1.1775208672
 C         -2.7901829503       -1.3276680184        0.3442881534
 C         -3.7844019052       -2.3110309570        0.4817636234
 C         -3.4312919581       -3.5901688769        0.7930937289
 C         -2.0627181271       -3.9280024567        0.9418958798
 C         -1.1017703735       -2.9844689510        0.7903556180
 N         -1.4511277934       -1.6948345126        0.5229730940
 C          1.4683175874       -1.1295521080        1.3952748951
 C          2.8210056314       -0.9853938513        1.4929316391
 C          3.5364470266       -0.1735841227        0.5848305459
 C          4.9259730628       -0.0012292484        0.6694922840
 H          7.6295987612        1.4624632388       -1.9193356505
 H          7.3357155029        2.8171806707       -0.7901927217
 H          8.7095373686        1.7163281706       -0.5278752801
 H          5.3889261951        2.1388468030       -1.9154012023
 H          2.9768693707        1.8551907707       -2.0938193187
 H          0.8617722773        0.8582170715       -1.2767708352
 H         -5.3039221915        0.0118426821        0.9449979751
 H         -7.0891306248        1.5911024355        0.3709377986
 H         -6.6484952391        3.4577325046       -1.1785125520
 H         -4.3963666048        3.7395966386       -2.1498882320
 H         -2.6039303231        2.1280897586       -1.5895668951
 H         -4.8134296703       -2.0382312563        0.3148713948
 H         -4.1795801612       -4.3586885205        0.9029427526
 H         -1.7819612149       -4.9464963539        1.1555528818
 H         -0.0473802950       -3.2045271616        0.8412798259
 H          0.9379048559       -1.7117815747        2.1350717020
 H          3.3661772501       -1.4813720688        2.2832822491
 H          5.4878792606       -0.5115060814        1.4365358740
  45
        -70.49744914
 C          7.9964542063        0.1942858228        0.7208035479
 O          7.0064494954        0.8543573700       -0.0287399940
 C          5.7042764414        0.4816646970        0.1273444622
 C          5.2747911128       -0.5424965809        0.9944469040
 C          3.9466645473       -0.8540643927        1.0846813726
 C          2.9787538839       -0.1693691900        0.3251975783
 C          1.6093600758       -0.4820100395        0.4042364221
 C          0.6810210571        0.2016259939       -0.3474155379
 C         -0.7363393011       -0.1085136357       -0.2680917774
 N         -1.6969958213        0.7908495105       -0.2110991517
 C         -2.8706944868        0.1419351898       -0.0501260268
 C         -4.1175400077        0.8681278675        0.1140055640
 C         -5.1737019306        0.3518557630        0.8637698286
 C         -6.3443812690        1.0715441451        1.0106908956
 C         -6.4784303647        2.3170285530        0.4201733144
 C         -5.4261192604        2.8470526499       -0.3095115586
 C         -4.2546286535        2.1320008669       -0.4602712054
 C         -2.6354782063       -1.2376382807       -0.0463780546
 C         -3.4268680580       -2.3988770649       -0.0162815574
 C         -2.8333940734       -3.6223278691       -0.1079561563
 C         -1.4275485592       -3.7165905548       -0.2667196894
 C         -0.6662714491       -2.5969629448       -0.3162504421
 N         -1.2506688366       -1.3734428631       -0.1857007948
 C          1.1097144891        1.2582685330       -1.1838405259
 C          2.4310433385        1.5771172170       -1.2814023272
 C          3.4078244135        0.8708278721       -0.5417941031
 C          4.7755652877        1.1710287924       -0.6234953880
 H          8.0362670366       -0.8746896565        0.4861861607
 H          8.9392344897        0.6579999536        0.4343737959
 H          7.8438851142        0.3258859461        1.7971620500
 H          5.9879466563       -1.0875638999        1.5928806825
 H          3.6239134823       -1.6415172693        1.7513977571
 H          1.2993172313       -1.2500921115        1.0997203497
 H         -5.0658082561       -0.6005364341        1.3609112869
 H         -7.1549118010        0.6617698372        1.5968396196
 H         -7.3956862238        2.8756615762        0.5368334723
 H         -5.5227724713        3.8235662057       -0.7618353487
 H         -3.4252072058        2.5362566636       -1.0195066366
 H         -4.4974889576       -2.2982047655        0.0544595187
 H         -3.4229057132       -4.5249955044       -0.0872514779
 H         -0.9630050525       -4.6836793594       -0.3704679187
 H          0.3988566091       -2.6112249960       -0.4859942103
 H          0.3604334693        1.8012453975       -1.7386045839
 H          2.7542844578        2.3817067204       -1.9258267210
 H          5.1174340781        1.9561451418       -1.2801701130
  45
        -70.49709534
 C          7.9161733072        0.5791554751       -0.9391164520
 O          6.9232929361        1.1289175601       -0.1087226694
 C          5.6610775795        0.6159982549       -0.1615767082
 C          5.2930890394       -0.5057294284       -0.9302575220
 C          3.9962623966       -0.9403208967       -0.9360469868
 C          2.9964166821       -0.2809632076       -0.1953516881
 C          1.6457810942       -0.6768568813       -0.2409084482
 C          0.6827164266        0.0193166261        0.4522770348
 C         -0.7348497326       -0.2772082357        0.3404627044
 N         -1.6491311385        0.6660008053        0.2424635125
 C         -2.8524529153        0.0763982109        0.0784871081
 C         -4.0423378067        0.8869524221       -0.1127722467
 C         -3.8870669380        2.1802934605       -0.6155839411
 C         -4.9849927519        2.9884933288       -0.8284725768
 C         -6.2584146457        2.5227269453       -0.5408750945
 C         -6.4211914375        1.2491524726       -0.0219514890
 C         -5.3243056308        0.4359520131        0.1959632510
 C         -2.6820164249       -1.3129290856        0.0780276741
 C         -3.5070205534       -2.4377540876       -0.0931877466
 C         -2.9708068450       -3.6880758494       -0.0113145474
 C         -1.5890090063       -3.8490036534        0.2635973554
 C         -0.7848839021       -2.7658445340        0.3889491369
 N         -1.3075682359       -1.5147131663        0.2566096701
 C          1.0603184830        1.1393984087        1.2307740821
 C          2.3624536100        1.5298649759        1.3066907853
 C          3.3687068463        0.8438640052        0.5883786362
 C          4.7068120177        1.2627009032        0.5945538883
 H          8.8065438487        1.1831064424       -0.7703658155
 H          8.1343845647       -0.4617026834       -0.6778996334
 H          7.6362581380        0.6390534975       -1.9962259721
 H          6.0294639448       -1.0287839838       -1.5202353514
 H          3.7226002038       -1.8013015216       -1.5298261837
 H          1.3778006912       -1.5063263781       -0.8811009099
 H         -2.8890633784        2.5278715272       -0.8330315493
 H         -4.8506966216        3.9857316897       -1.2223642312
 H         -7.1192977074        3.1524105113       -0.7122816520
 H         -7.4110531175        0.8888103656        0.2202925053
 H         -5.4634332617       -0.5408679012        0.6340606777
 H         -4.5547822893       -2.2900192517       -0.2969789657
 H         -3.5880153717       -4.5627422331       -0.1411057319
 H         -1.1753385491       -4.8385511804        0.3706069778
 H          0.2689313231       -2.8307641760        0.6098297109
 H          0.2825729186        1.6751209196        1.7520976199
 H          2.6454310657        2.3846120559        1.9035603334
 H          5.0009782633        2.1177328257        1.1833441259
