54
 energy: -95.156493211478 gnorm: 0.000106016184 xtb: 6.7.1 (edcfbbe)
F           -1.34003640154797       -0.95065941195440        2.17937707425985
C           -0.69356704529483       -0.56231216650872        1.05349165729816
C            0.68104888336573       -0.50481670102589        1.14087312366471
C            1.43951991232490       -0.04830814311922        0.06061901782767
N            2.86096724324795        0.00981934540109        0.11262683582897
C            3.42374547735646        1.16640859243489        0.58873141785324
C            2.63248084652919        2.15477199131910        1.19848422811927
C            3.17435283259661        3.31655472320105        1.68015644723741
C            4.56166113023372        3.57137648171317        1.54594246710743
C            5.35557881244248        2.65163137361763        0.92234226455308
C            4.83140507003487        1.43799282445067        0.45546765784976
S            5.87348191018326        0.43269500563769       -0.48971400151163
C            4.95979210883239       -1.02671015078169       -0.64222139774715
C            5.60099318325173       -2.13599616455614       -1.21063361684780
C            4.91518197767795       -3.28386720330320       -1.48860606260460
C            3.52113886456177       -3.34030512377868       -1.23763777593909
C            2.86539934773715       -2.25516631583963       -0.72098804707717
C            3.54193781274862       -1.06765772835829       -0.39286890337056
C            0.74848117897934        0.37447688893782       -1.06761703910147
F            1.44567367765413        0.86922053313880       -2.11162033331567
C           -0.62182055012772        0.31204668856720       -1.16147312605887
C           -1.40271607303333       -0.20717265668915       -0.10642139822750
N           -2.76943088582242       -0.27911604360349       -0.21347024829161
C           -3.61251394577723       -0.84716760408800        0.76753453204981
C           -3.46814579385175       -2.16823507024205        1.17559723814399
C           -4.31600058807136       -2.69272430546965        2.13210639839997
C           -5.33142961228297       -1.91658995068292        2.66901702095486
C           -5.51889682279618       -0.61854083023330        2.22902849969934
C           -4.66626062318047       -0.09037028816203        1.27478013742660
S           -4.91974897378747        1.55013836647635        0.64555026788424
C           -4.51612910108620        1.17270475706059       -1.04018278578876
C           -5.23704076440821        1.74118816596068       -2.07693359684188
C           -4.95071377604771        1.39146244828058       -3.38490425678679
C           -3.97724316397572        0.44012157023527       -3.64971620850934
C           -3.25871045238331       -0.13136438230114       -2.61609036552370
C           -3.48792554529106        0.26656315429252       -1.30176726156122
H            1.16148803249465       -0.79912444842495        2.05969601355986
H            1.57234795281052        1.98336663776619        1.30371512718082
H            2.54202214159600        4.04616932133921        2.15960364408629
H            4.97803937388596        4.48954157155548        1.92739054324087
H            6.41164308827133        2.82964395518424        0.78389094788192
H            6.65973199662814       -2.05811017322754       -1.40840296775756
H            5.42135018597019       -4.14201593039733       -1.89993850122621
H            2.97584516441168       -4.24321261190805       -1.46065006965231
H            1.80271731302625       -2.31445734004675       -0.54167086944274
H           -1.08829263366982        0.69605189465277       -2.05166934766154
H           -2.67283367834006       -2.76648299095612        0.75652438686279
H           -4.18441027224823       -3.71276705974469        2.45855661200927
H           -5.98741038825254       -2.32620987547258        3.42140162483470
H           -6.31654229184476       -0.00695735793504        2.62130281045518
H           -6.01457552718647        2.45355492039459       -1.84928353296840
H           -5.50302199519230        1.84320166513935       -4.19401824026227
H           -3.77915894125912        0.13706343708067       -4.66644933299284
H           -2.51743104426550       -0.88939369291639       -2.81961609585428
