54
 energy: -95.244852394107 gnorm: 0.000035369840 xtb: 6.7.1 (edcfbbe)
F           -1.34535769941916       -1.04226709414517        2.17873154156028
C           -0.69929704735009       -0.63774524218643        1.05952302133695
C            0.67531525527925       -0.57053762987111        1.14392030317008
C            1.43424223889555       -0.10220432509725        0.08118775538777
N            2.84927244254969       -0.03769874438018        0.17094874541910
C            3.40981318127741        1.17097275421272        0.58710106409045
C            2.58801775876320        2.26728691320566        0.85027556228256
C            3.10982946050694        3.47850648408220        1.26873921585297
C            4.47336631334865        3.63449199664510        1.42692975565381
C            5.30484048958424        2.55811964921073        1.17385282223379
C            4.78398119928428        1.33969446994514        0.77105769765531
S            5.94331534281537        0.01845378920900        0.56149312019062
C            4.96748217237873       -1.16407498974811       -0.32276953358611
C            5.65401331666612       -2.21404929845053       -0.90946912876628
C            4.97521160433198       -3.22670113904683       -1.56361545254389
C            3.59603026114189       -3.17653239752598       -1.62480424374289
C            2.90839875852093       -2.12031182520812       -1.05369846160967
C            3.57466001986773       -1.08563671851877       -0.39614164316973
C            0.73997999408298        0.31912849217758       -1.05021377124494
F            1.42510573320928        0.82232305595869       -2.09464386636243
C           -0.63143073777865        0.24256050681148       -1.14591693816915
C           -1.40869897974544       -0.27560484905394       -0.09967976505544
N           -2.77537004399963       -0.35164795241797       -0.20737804625148
C           -3.61942191768482       -0.89125521027996        0.79138580667056
C           -3.51029652964039       -2.21620500450945        1.19315951964213
C           -4.35292032388010       -2.71296336434691        2.16982108549281
C           -5.32613064846737       -1.90208711632042        2.73175090668848
C           -5.47800749573315       -0.59750293375461        2.29975125570884
C           -4.63139938459878       -0.09781166496963        1.32369488528691
S           -4.84549346866489        1.55242995793833        0.70600893288676
C           -4.47550393196529        1.18050037296905       -0.98761752281986
C           -5.18235071795107        1.79630476197088       -2.00905684488648
C           -4.92734327438892        1.45255031082319       -3.32354064325094
C           -3.99892367829657        0.46572830527633       -3.61521121200293
C           -3.29249205284246       -0.14998144366060       -2.59740900717660
C           -3.49196958903398        0.23647410061668       -1.27723775512067
H            1.15551003423068       -0.87243055014015        2.06108302502979
H            1.51967743853871        2.17250045712339        0.73305176008401
H            2.43827041705699        4.29985414396638        1.46721383976872
H            4.88935880562275        4.57642381831546        1.74775346912000
H            6.37356972806692        2.64411124041506        1.29853063580998
H            6.73050868308118       -2.23081202963197       -0.83237901654018
H            5.51997614436534       -4.04318487986150       -2.01060853027826
H            3.04179899857189       -3.95917583640430       -2.12036946510320
H            1.83117751278908       -2.10474124158219       -1.11454993637864
H           -1.09636554053629        0.61723691786951       -2.04211732366281
H           -2.74471298073508       -2.83959698835271        0.75607197128458
H           -4.24903724636654       -3.73727809607793        2.49221752398106
H           -5.97804845923070       -2.28987263558387        3.49907279687072
H           -6.24305600214719        0.04119951123123        2.71299565730046
H           -5.92507907390236        2.53856877543017       -1.76181711656497
H           -5.46992558375672        1.93876189075023       -4.11923438071228
H           -3.82491337412093        0.17040753251841       -4.63836608178671
H           -2.58310460503923       -0.93274553586062       -2.82026755312477
