  54
        -95.24483775
 F         -1.3458478535       -1.0731809214        2.1777299055
 C         -0.6994521979       -0.6641558225        1.0603538970
 C          0.6751864570       -0.5959987904        1.1459615716
 C          1.4345039369       -0.1247436950        0.0849229029
 N          2.8490061981       -0.0514580037        0.1779225030
 C          3.3991346143        1.1638346070        0.5897154239
 C          2.5682161407        2.2539721411        0.8500048172
 C          3.0799283537        3.4704912502        1.2654041090
 C          4.4421394133        3.6381903494        1.4234416333
 C          5.2825893523        2.5684049136        1.1724643763
 C          4.7718990698        1.3447801893        0.7724935677
 S          5.9415683809        0.0325444146        0.5643853648
 C          4.9770539755       -1.1531665197       -0.3280081953
 C          5.6730751450       -2.1910616270       -0.9248970541
 C          5.0029706797       -3.2068926464       -1.5829799581
 C          3.6230256583       -3.1727285381       -1.6368988702
 C          2.9258302625       -2.1278104309       -1.0567070838
 C          3.5832786672       -1.0892524608       -0.3966248135
 C          0.7409649981        0.2949650524       -1.0475403194
 F          1.4268314150        0.7981389322       -2.0915161262
 C         -0.6302336191        0.2182916953       -1.1441365541
 C         -1.4084640428       -0.2980554710       -0.0976759696
 N         -2.7755228809       -0.3681097347       -0.2058179476
 C         -3.6249201944       -0.8919165295        0.7969369950
 C         -3.5338240792       -2.2166631118        1.2037109872
 C         -4.3821453453       -2.6978612700        2.1833037502
 C         -5.3431158465       -1.8713676956        2.7434635524
 C         -5.4770922094       -0.5664237795        2.3068916136
 C         -4.6248996673       -0.0823318318        1.3278362179
 S         -4.8173982801        1.5686878247        0.7049450859
 C         -4.4550790940        1.1865660292       -0.9880149749
 C         -5.1528722890        1.8105737620       -2.0107280970
 C         -4.9035700735        1.4597637216       -3.3244690149
 C         -3.9902661755        0.4583891440       -3.6142407411
 C         -3.2926744969       -0.1652422170       -2.5952149565
 C         -3.4861282501        0.2272064769       -1.2759396565
 H          1.1548209594       -0.8988259665        2.0631175025
 H          1.5006916889        2.1502849101        0.7333533099
 H          2.4014467469        4.2867472068        1.4614472912
 H          4.8501922483        4.5842768743        1.7422168090
 H          6.3506051687        2.6636305337        1.2967950287
 H          6.7500253897       -2.1959709186       -0.8525834265
 H          5.5550704777       -4.0138587128       -2.0381585720
 H          3.0756004224       -3.9591724240       -2.1342455618
 H          1.8481686534       -2.1243354882       -1.1121515953
 H         -1.0944455991        0.5923661956       -2.0410335451
 H         -2.7777438795       -2.8523997079        0.7680003083
 H         -4.2922746254       -3.7222646010        2.5094582796
 H         -5.9996061572       -2.2471000972        3.5129455876
 H         -6.2325742322        0.0845688312        2.7187356776
 H         -5.8838692797        2.5648505293       -1.7650894202
 H         -5.4388252080        1.9524281680       -4.1211851883
 H         -3.8207508388        0.1584613271       -4.6368551062
 H         -2.5941008509       -0.9581537150       -2.8160670607
