  48
  -82.8409270500000       0.639267687133786      !
 N         -6.2451982667       -2.0715105785       -2.7348800355
 C         -5.6851636365       -1.4660427117       -1.9401436472
 C         -4.9873696995       -0.7250453924       -0.9552666729
 C         -5.7000444599        0.0042788448       -0.0043231587
 C         -4.9876564397        0.7279671836        0.9510838797
 C         -5.6851392872        1.4754738006        1.9312672150
 N         -6.2441501168        2.0873678289        2.7220618963
 C         -3.5961125730        0.7274348038        0.9551535535
 C         -2.8800181775       -0.0047618939        0.0027483449
 C         -1.4221801024       -0.0056487972        0.0043534111
 C         -0.7126166789       -1.2451321348        0.0392043704
 C         -1.3719221088       -2.4715083437        0.1636137116
 C         -0.6817995533       -3.6804038419        0.1025342420
 C          0.6822668074       -3.6803337500       -0.0923854764
 C          1.3724156196       -2.4714383722       -0.1537376779
 C          0.7133685241       -1.2450080490       -0.0286296273
 C          1.4223745606       -0.0050487308        0.0058131332
 C          2.8800416798       -0.0025187274        0.0010981641
 C          3.6019567642       -0.7341376271        0.9495191521
 C          4.9935152074       -0.7255313070        0.9436345965
 C          5.6972711115       -1.4719240962        1.9202093375
 N          6.2625911685       -2.0824813001        2.7075603897
 C          5.7002269109        0.0070720580       -0.0091715403
 C          4.9817950579        0.7350389963       -0.9568336079
 C          5.6729122548        1.4873748748       -1.9378310218
 N          6.2273024258        2.1036889047       -2.7283998857
 C          3.5903284764        0.7338541101       -0.9525566878
 C          0.7125374810        1.2344141706        0.0421569747
 C          1.3710138248        2.4607517910        0.1712567021
 C          0.6809385125        3.6696228345        0.1093347132
 C         -0.6823924688        3.6696097059       -0.0904329161
 C         -1.3721003526        2.4606777433       -0.1547581014
 C         -0.7131636027        1.2342511880       -0.0287255824
 C         -3.5958105220       -0.7336345559       -0.9523463611
 H         -6.7792995570        0.0089730240       -0.0080781059
 H         -3.0658294961        1.2736171638        1.7216859104
 H         -2.4397287380       -2.4913873755        0.3191265374
 H         -1.2248555206       -4.6083615583        0.1930359197
 H          1.2253682234       -4.6082348797       -0.1831528229
 H          2.4400133277       -2.4916521792       -0.3104419336
 H          3.0763984790       -1.2866441368        1.7147526247
 H          6.7794808010        0.0111186451       -0.0127277658
 H          3.0552737463        1.2827736770       -1.7137687517
 H          2.4381681477        2.4808369715        0.3310934140
 H          1.2235921463        4.5974896843        0.2028913211
 H         -1.2253390688        4.5974961645       -0.1820837900
 H         -2.4392759258        2.4807734300       -0.3143260465
 H         -3.0652647676       -1.2816906543       -1.7173546499
  48
  -82.8403863300000       0.360732312866214      !
 N         -6.2183562895       -1.0973103379       -3.2694565444
 C         -5.6705490029       -0.7700090194       -2.3184054051
 C         -4.9805968879       -0.3765885698       -1.1457552759
 C         -5.7007302659        0.0060434989       -0.0148090389
 C         -4.9964261473        0.3868166041        1.1265900450
 C         -5.7031231432        0.7782937468        2.2900044450
 N         -6.2715559386        1.1037215754        3.2299539807
 C         -3.6047924536        0.3873205438        1.1393675996
 C         -2.8813894153        0.0030545949        0.0061312655
 C         -1.4230000978       -0.0002445319        0.0149196986
 C         -0.7164715434       -1.1981703049       -0.3163071051
 C         -1.3841747094       -2.4037854918       -0.5504228082
 C         -0.6942450469       -3.5793162805       -0.8399281967
 C          0.6829755416       -3.5783255607       -0.8538412851
 C          1.3763514565       -2.4027361209       -0.5738435143
 C          0.7107423036       -1.1990294936       -0.3230737334
 C          1.4210291252       -0.0061568217        0.0140903745
 C          2.8808158189       -0.0063366683        0.0038927362
 C          3.6046953852        0.3400531651        1.1482300637
 C          4.9965568249        0.3412125303        1.1332472986
 C          5.7056026777        0.6906257066        2.3085766300
 N          6.2729938551        0.9772625797        3.2615246984
 C          5.6986411968        0.0039857836       -0.0229568106
 C          4.9771083788       -0.3400768737       -1.1652046050
 C          5.6658999597       -0.6813408842       -2.3548116139
 N          6.2194296618       -0.9611549461       -3.3181235103
 C          3.5853617331       -0.3497975251       -1.1533257633
 C          0.7158314570        1.1883053818        0.3569918797
 C          1.3861473194        2.3888679580        0.6102037550
 C          0.6979310128        3.5662781789        0.8951306084
 C         -0.6792047459        3.5727929343        0.8829907476
 C         -1.3740435049        2.4009588072        0.5902245620
 C         -0.7116331082        1.1932768803        0.3514292117
 C         -3.5889980851       -0.3798424117       -1.1376653770
 H         -6.7799799014        0.0071492026       -0.0227272160
 H         -3.0809121599        0.6572457151        2.0447963095
 H         -2.4609756775       -2.4398832310       -0.4904651672
 H         -1.2465466505       -4.4855797788       -1.0346215318
 H          1.2324050497       -4.4835377652       -1.0611477063
 H          2.4542273824       -2.4360342443       -0.5349079501
 H          3.0813340176        0.5805726446        2.0622456494
 H          6.7778940726        0.0094319782       -0.0336634923
 H          3.0463234120       -0.5954439820       -2.0567967442
 H          2.4639751029        2.4188459124        0.5689957075
 H          1.2514819303        4.4684695682        1.1045971224
 H         -1.2275691667        4.4806503847        1.0813039784
 H         -2.4506443686        2.4418296622        0.5309643394
 H         -3.0519645793       -0.6522057877       -2.0346302381
