66
 energy: -109.144475481026 gnorm: 0.000076960168 xtb: 6.7.1 (edcfbbe)
Br          -1.44071903762111        2.94065257412723       -0.29201975523113
C           -0.62680669995767        1.22848792501348       -0.05308852359726
C            0.72573267563459        1.19392822123269        0.01289863364664
C            1.45565884964135       -0.02157907492229        0.19081963549445
C            2.84725993740607       -0.07847706076272        0.24263371686560
C            3.72733528837745        0.98795939233528        0.12097136581423
C            5.13906087078433        0.90058309954113        0.16310543720524
C            5.90398613113928        2.07770740767843       -0.01073110005369
C            7.27407585376477        2.05602092725887        0.00478097546208
C            7.95694736199273        0.84865547680732        0.19301484627324
N            9.34839651278969        0.82879923418979        0.20828098679341
C           10.16456830196498        1.76959518007151        0.78777253781703
N           11.42401318945933        1.49560566280061        0.71313047715098
C           11.50300960165045        0.30747315753262        0.02682125183270
C           12.61460541446993       -0.42921086979942       -0.36025842556961
C           12.39648989838784       -1.59016273912566       -1.07399605964238
C           11.10920798779808       -2.00666757306811       -1.41371013159363
C            9.99001494784899       -1.28900831415249       -1.03793073618994
C           10.19822732707152       -0.13667646784316       -0.29604192962265
C            7.22203786926730       -0.32570214739032        0.38871534817953
C            5.85099612482895       -0.30212471177507        0.37330266968274
C            0.63173051122129       -1.19066426056423        0.30857300635128
Br           1.44431245607394       -2.89997516687369        0.57133169762664
C           -0.72070071565308       -1.15628705194100        0.24097767035114
C           -1.44989917759375        0.05710336517875        0.04642410039830
C           -2.83961786020661        0.10843093341555       -0.04642536321686
C           -3.71674137059685       -0.96473704948672        0.02833972622798
C           -5.12510813226622       -0.88893638446581       -0.08597010467258
C           -5.83689431266432        0.31058644606414       -0.31400297125621
C           -7.20433677439131        0.31967902019579       -0.41741113153076
C           -7.93571954727754       -0.86689112729823       -0.29653371472424
N           -9.32264401859364       -0.86406226792251       -0.41180335762813
C          -10.07989591736323       -1.80203139369906       -1.07060497360989
N          -11.34491656879964       -1.54469481599432       -1.08638816331208
C          -11.49159026887776       -0.37223240335391       -0.38447276088866
C          -12.63909156462600        0.34313944821070       -0.06886741778125
C          -12.49130441446874        1.49142142163031        0.68241005736648
C          -11.23921965345886        1.91581805981164        1.12757827289383
C          -10.08520485761646        1.21944963182324        0.82393225661319
C          -10.22108786028358        0.08046849153059        0.04555929205898
C           -7.25201203314755       -2.06982679331953       -0.08441008273819
C           -5.88571853153880       -2.07687978522385        0.02010690344348
H            1.28106675868225        2.11406563003525       -0.07067308433772
H            3.27729465986942       -1.05911075300356        0.38462114387584
H            3.32903549738134        1.98154566696686       -0.02889243913145
H            5.38901074073036        3.01390224466224       -0.17006676407836
H            7.83517836404916        2.96561466010109       -0.15000644616849
H            9.76618496010014        2.63223551077322        1.28616665319351
H           13.60697910405937       -0.08920983354035       -0.11282909768378
H           13.23875960268276       -2.18762018313557       -1.38926896729796
H           10.98387080407767       -2.91181858578425       -1.98885473940482
H            9.00107925371892       -1.61071244757321       -1.32650241757995
H            7.74424806705055       -1.25033469761866        0.58145632331358
H            5.31587861523395       -1.22341521819992        0.53842855037265
H           -1.27639056478355       -2.07517127780445        0.33517748946955
H           -3.26980677268414        1.08795951658193       -0.19551543347725
H           -3.31791606911243       -1.95718266915158        0.18434188457129
H           -5.30358859311335        1.24116210967186       -0.42365195276170
H           -7.72423571584682        1.24266525799592       -0.62382774684131
H           -9.63322663692704       -2.64902599113968       -1.55470502551677
H          -13.60512516927478       -0.00321649624747       -0.39816844027238
H          -13.36297440015156        2.07227540042954        0.94425099198022
H          -11.17007520092406        2.81015573432141        1.72853413321745
H           -9.12536787685995        1.54673614795293        1.19320840129050
H           -7.81099007893577       -2.98827623697845        0.01641216118573
H           -5.37083327275291       -3.01033733002688        0.19508140952318
