66
 energy: -109.204926699225 gnorm: 0.000038101105 xtb: 6.7.1 (edcfbbe)
Br          -1.44237161812726        2.95634041800412       -0.05508012759058
C           -0.63902213051351        1.22700291199657        0.05438946596456
C            0.73449447931211        1.18614796615949        0.13768327201760
C            1.43431124037988       -0.02161184881322        0.23151106398311
C            2.87547516662153       -0.07760623164390        0.30443656725768
C            3.71742436167562        0.93002705197050        0.02227558398453
C            5.16238295875568        0.87184866195636        0.07342271387738
C            5.89319072032557        2.00073403637565       -0.31478832132350
C            7.27065177543652        2.00263045459855       -0.30723337347682
C            7.96634073032796        0.86494195306389        0.09654143769745
N            9.36236999402285        0.86686569124818        0.10802407704419
C           10.16773992057050        1.89600260790261        0.52598592529169
N           11.43135791269206        1.63514757106587        0.47375849363276
C           11.52207901513994        0.35750808160920       -0.02412399987894
C           12.64119316374146       -0.41508618548361       -0.30903477876160
C           12.43340012685865       -1.67370469502192       -0.83275793272581
C           11.14857628136800       -2.15680932812738       -1.08523233962533
C           10.02286231091597       -1.40647856130821       -0.80846999076789
C           10.22199019935397       -0.15043383502740       -0.25736846069762
C            7.25404976968792       -0.26110339101654        0.50558392553356
C            5.87654960029708       -0.25671152846628        0.48996324769101
C            0.64467015552665       -1.18181508289310        0.25427323393349
Br           1.44573314044386       -2.91175958075371        0.37172872079460
C           -0.72875846548229       -1.14095045037953        0.16984392777784
C           -1.42801714342093        0.06626342529888        0.06626921904446
C           -2.86669418432998        0.11822817447075       -0.04747266497034
C           -3.71375582366766       -0.89291464142815        0.20521255804581
C           -5.15391008334606       -0.85096806549711        0.07080397844950
C           -5.85097133963359        0.25309796661760       -0.43142793611677
C           -7.22318190421523        0.23379389674912       -0.55147977155898
C           -7.94810994037205       -0.89164944796208       -0.16342516711636
N           -9.33749643293290       -0.92412707990665       -0.29539164868136
C          -10.08113179241503       -1.98598587687018       -0.74539437317024
N          -11.34817212374008       -1.75030730805159       -0.82471940238125
C          -11.50845942930919       -0.45590327575993       -0.39194938607379
C          -12.66306700057719        0.30371685512756       -0.24978678897571
C          -12.52880424524901        1.58696521693320        0.23684668856646
C          -11.28309940391482        2.10688290288309        0.59145460195714
C          -10.12308794772447        1.36984910044685        0.45705844324050
C          -10.24586480231483        0.08850552303619       -0.05690396217254
C           -7.26907434336912       -2.00176503082867        0.33470703169309
C           -5.89625002806679       -1.97698257698894        0.44508332797264
H            1.28485943125908        2.11348015495652        0.14232614673127
H            3.28162128278993       -1.03707088825463        0.58937396416798
H            3.32206638198832        1.88439697106338       -0.30043730576247
H            5.36608864099302        2.88725742762873       -0.63699238254758
H            7.81594149338784        2.87768446109912       -0.62785624838762
H            9.75880639569044        2.81819485571521        0.89222495027654
H           13.63080088568194       -0.02778130967723       -0.12901575672177
H           13.28121559211525       -2.30075302900188       -1.06519194198364
H           11.03190732376998       -3.14181921685635       -1.51209988600885
H            9.03487001770919       -1.78189328745689       -1.02819189625712
H            7.78847610689255       -1.13113610285758        0.85488929149829
H            5.35278666811819       -1.14159369011638        0.81498396044827
H           -1.27912812725541       -2.06827136975015        0.16631724278012
H           -3.26615447739013        1.07420300546979       -0.35321263890276
H           -3.32722908260422       -1.84062741514557        0.55700167035385
H           -5.31651530413599        1.13518357421981       -0.74651972975527
H           -7.74139306501380        1.08261017884744       -0.97037114627423
H           -9.62303371809693       -2.91297077373146       -1.03280498634717
H          -13.62357947769096       -0.11158793362574       -0.50800345282329
H          -13.40575990363643        2.20508469422734        0.35878952231763
H          -11.22535406902572        3.11079306761734        0.98501685466788
H           -9.16793393871502        1.77491743412321        0.75524061533109
H           -7.82446779567239       -2.87472311617621        0.64343474449937
H           -5.38251160803920       -2.84359927076709        0.83575713589673
