  66
       -109.20484813
 Br        -1.4425323948        2.9726993146       -0.1067765168
 C         -0.6394352624        1.2454486231        0.0325351087
 C          0.7338424522        1.2078229206        0.1216549490
 C          1.4355834031        0.0029075923        0.2358097171
 C          2.8763379469       -0.0512876610        0.3134124996
 C          3.7202841740        0.9570501853        0.0401573837
 C          5.1650216247        0.8933447320        0.0912549579
 C          5.9007461603        2.0169500745       -0.3029663535
 C          7.2782314390        2.0107080362       -0.3017198568
 C          7.9690341977        0.8702518996        0.1025911491
 N          9.3649953497        0.8623158037        0.1052138063
 C         10.1808312531        1.8874112187        0.5125503867
 N         11.4419528795        1.6162272327        0.4546796573
 C         11.5197499530        0.3349601975       -0.0359458739
 C         12.6310172490       -0.4482504267       -0.3223072833
 C         12.4103517474       -1.7081871100       -0.8373786879
 C         11.1204353769       -2.1823119448       -1.0802442405
 C         10.0023581311       -1.4213435117       -0.8018929520
 C         10.2144540604       -0.1638874636       -0.2590045331
 C          7.2519083884       -0.2493599327        0.5207638532
 C          5.8744996266       -0.2371276556        0.5107443865
 C          0.6472613611       -1.1579762834        0.2716581667
 Br         1.4482125865       -2.8857941439        0.4194434560
 C         -0.7258104919       -1.1202702537        0.1814633789
 C         -1.4270775881        0.0838928012        0.0580368341
 C         -2.8655311687        0.1313270510       -0.0596762713
 C         -3.7098319622       -0.8832829023        0.1886914921
 C         -5.1498558169       -0.8465939120        0.0528208897
 C         -5.8515697425        0.2572298082       -0.4433008810
 C         -7.2238481108        0.2332292246       -0.5613729414
 C         -7.9439110880       -0.8968332532       -0.1776802273
 N         -9.3335852275       -0.9324022106       -0.3050552649
 C        -10.0768968464       -1.9917565601       -0.7609605095
 N        -11.3447074151       -1.7579145060       -0.8328350202
 C        -11.5057587482       -0.4677295387       -0.3880938832
 C        -12.6610335870        0.2884652579       -0.2338872641
 C        -12.5268828292        1.5673842724        0.2638830067
 C        -11.2806776291        2.0863555068        0.6178316685
 C        -10.1200265793        1.3527452658        0.4715931993
 C        -10.2429022524        0.0761385822       -0.0537174090
 C         -7.2601016727       -2.0073724583        0.3125521657
 C         -5.8873157693       -1.9777734334        0.4212271276
 H          1.2825479641        2.1360038753        0.1137342676
 H          3.2821993411       -1.0120001467        0.5940686160
 H          3.3281387430        1.9148147671       -0.2761122550
 H          5.3774548128        2.9053292718       -0.6262747858
 H          7.8270475273        2.8813208863       -0.6282958351
 H          9.7813421119        2.8149374396        0.8755759709
 H         13.6245865677       -0.0678831215       -0.1498780122
 H         13.2517838507       -2.3434701619       -1.0703921451
 H         10.9935479338       -3.1687453198       -1.5007472028
 H          9.0103155355       -1.7899484216       -1.0144579666
 H          7.7827331379       -1.1207341565        0.8721306338
 H          5.3471898034       -1.1170756700        0.8432547715
 H         -1.2742486767       -2.0485426871        0.1900878854
 H         -3.2675920793        1.0858169298       -0.3664248459
 H         -3.3209370056       -1.8308928310        0.5378232280
 H         -5.3207615140        1.1428569412       -0.7545985738
 H         -7.7461378158        1.0821793153       -0.9748120140
 H         -9.6181457761       -2.9152988205       -1.0581775389
 H        -13.6219067381       -0.1260208074       -0.4917593819
 H        -13.4043303869        2.1827673028        0.3952621572
 H        -11.2230418331        3.0865696075        1.0205143869
 H         -9.1641440557        1.7566900241        0.7688581936
 H         -7.8118008869       -2.8840797709        0.6171923922
 H         -5.3697216009       -2.8441965585        0.8071483483
