66
 energy: -109.144467956669 gnorm: 0.000035616247 xtb: 6.7.1 (edcfbbe)
Br          -1.43257042349628        2.86332910847541       -0.69625174791082
C           -0.62400857791859        1.20308129882332       -0.20546869642832
C            0.72793656723910        1.17710946711302       -0.12536606241221
C            1.45444303082136       -0.00084736104259        0.23040894739003
C            2.84570635437591       -0.05095073454119        0.29809774975332
C            3.72688968244842        0.99085226550469        0.04353313588278
C            5.13863396637829        0.90989790481098        0.09612000033103
C            5.90190383742008        2.06090872704232       -0.20978848214491
C            7.27197751920892        2.04270409546086       -0.19352397198798
C            7.95657427216864        0.86454106705931        0.12693667145187
N            9.34817823333250        0.84854235416849        0.13994995652893
C           10.16407972483183        1.84889704855272        0.60954695900293
N           11.42415103045606        1.57274314465212        0.55643556366631
C           11.50369005480918        0.31815692604116        0.00097533512720
C           12.61585366443412       -0.45153571056677       -0.31339708846886
C           12.39796065562857       -1.68293100168875       -0.89734367297912
C           11.11018980602789       -2.13845456199583       -1.18045612156986
C            9.99040831587339       -1.38891093602598       -0.87526325205138
C           10.19870191235162       -0.16270172466765       -0.26323926047159
C            7.22348487777539       -0.28141359637055        0.45377838204240
C            5.85228229007626       -0.26094358144864        0.43875381991095
C            0.62741624627123       -1.14048591080215        0.50753230560233
Br           1.43524171311122       -2.79608608210826        1.01494691015045
C           -0.72458903689193       -1.11437331996835        0.42797767833006
C           -1.45027127335901        0.05953518822212        0.05743539580564
C           -2.83930949032638        0.09886677912495       -0.05047361211503
C           -3.72017356602844       -0.94804134118078        0.18347237857605
C           -5.12719484249985       -0.88943469035202        0.04488475079174
C           -5.83257047248613        0.25541976738776       -0.39019969378604
C           -7.19886788239968        0.24910462214418       -0.50859728747242
C           -7.93569861905708       -0.89850428368709       -0.19618222355258
N           -9.32121374405206       -0.91428840277241       -0.32625281429073
C          -10.07279519690558       -1.95256851895809       -0.82082659759546
N          -11.33708938955591       -1.70231668368595       -0.89520876009654
C          -11.48959177286023       -0.42587139485585       -0.40912074654374
C          -12.63956388910909        0.33273262159517       -0.23557453403565
C          -12.49859768387087        1.59432411313277        0.30599409668549
C          -11.25089814667355        2.09033945151971        0.68435782134740
C          -10.09454493996271        1.35231660984002        0.51966352111059
C          -10.22318150493329        0.09512038015138       -0.05003266624040
C           -7.25819961265491       -2.04904068163864        0.22447554779859
C           -5.89303731006509       -2.04090467093565        0.34245365923654
H            1.28552828171779        2.07474773576635       -0.33837034515061
H            3.27406491883661       -1.00390174134195        0.57232000866460
H            3.32900066742822        1.95866434301926       -0.22733976814640
H            5.38558697195479        2.97284229412485       -0.47214583488634
H            7.83186027344106        2.92989246231411       -0.44963235505529
H            9.76520454155736        2.75873296278007        1.01498272046008
H           13.60839295656899       -0.08323113242674       -0.11128363589968
H           13.24070979691351       -2.30734811647480       -1.15356398837102
H           10.98497727710402       -3.10052101935599       -1.65431517319382
H            9.00082313979424       -1.74346524189430       -1.11976914225545
H            7.74729776017903       -1.17851868946489        0.74651176281212
H            5.31832689914397       -1.15879467361639        0.70558411808574
H           -1.28263245052676       -2.01008256101015        0.64785800983656
H           -3.26596852475508        1.04533436554333       -0.34873293637022
H           -3.32584568770804       -1.90331833566565        0.50018972067128
H           -5.29483141439306        1.15274394766053       -0.65110860403554
H           -7.71312722777943        1.12447830844341       -0.87469431137137
H           -9.62232315050973       -2.87056232164494       -1.14579272295547
H          -13.60229960082676       -0.06630463359616       -0.51043003267605
H          -13.37231547174496        2.21138925264158        0.45300303397113
H          -11.18714872565408        3.07571617408720        1.12111014821308
H           -9.13858588223982        1.73958834802491        0.83731379393639
H           -7.82122835124351       -2.93604646146590        0.47418752724679
H           -5.38329452770112       -2.93215161083203        0.67843276031752
