84
 energy: -131.863554865295 gnorm: 0.000108540931 xtb: 6.7.1 (edcfbbe)
C           -6.57439942614745       -0.98850196210487        0.29814491236068
C           -5.81632780622233       -0.26101321321421       -0.81656381791030
C           -6.09318363369374       -0.91969337722302       -2.17129154389861
C           -6.16128889481391        1.21204629875904       -0.84328509591990
C           -7.38193934753753        1.81000810082989       -1.06689960723550
C           -7.46188799507931        3.19671039963870       -1.04528150057642
C           -6.33663025189463        3.97083945749933       -0.80387111312665
C           -5.10520176112997        3.37954106985108       -0.57759224667842
C           -5.02237484287065        1.99581439480036       -0.59768740224458
C           -3.89178466483632        1.11228795005696       -0.39887662357764
C           -2.56415058581089        1.38220094605968       -0.11057804019566
C           -1.66575285990415        0.33840122443095        0.04086344673884
C           -2.10590316610404       -0.98874816355898       -0.11106051260321
C           -3.45587813564585       -1.25874538261703       -0.38612798631012
C           -4.33414962843123       -0.21564682489936       -0.52443290093607
N           -1.20500792938083       -2.03379680915253       -0.02005402049998
C           -1.70716207870134       -3.36612242468197        0.00958504089415
C           -2.12712641881372       -3.89745873610451        1.22122834677760
C           -2.62335698698169       -5.18861991888113        1.26652866203732
C           -2.70058350035541       -5.94529976787263        0.10907225159808
C           -2.28180456511871       -5.41168955347336       -1.09899251417334
C           -1.78521684419186       -4.12152197600725       -1.15383533794992
C            0.14881938965121       -1.81935309407935       -0.09759060687534
C            1.04813147472133       -2.88019979517752       -0.30480430879693
C            2.38496051717742       -2.64989050127485       -0.47995300050336
C            2.91571100935712       -1.33703872431716       -0.45866767864076
C            4.30167340443654       -1.06002354801484       -0.64078163825877
C            5.19182733446407       -2.03184837828881       -1.20451729022396
C            6.51996743285755       -1.80962450508864       -1.39562156431792
C            7.13233636154414       -0.58009479240641       -1.02396612363634
C            8.49872314082568       -0.38042381197234       -1.21385089137156
N            9.63074562701999       -0.24910308016796       -1.38573518461167
C            6.30708821026108        0.41690880854277       -0.46506597360934
N            6.70078154108021        1.61380403916449       -0.05155269843234
S            5.41019349178113        2.42038899599381        0.53304048265140
N            4.29429632561311        1.23395080118823        0.27185665335310
C            4.89152758311905        0.18811453253699       -0.28255911312787
C            2.00074759659031       -0.29219199515391       -0.20379960722731
C            0.66349462584485       -0.51086914287578        0.00009481051077
C           -0.24251198567647        0.60820884915197        0.47030765871331
C            0.21066645377930        1.94250996683849       -0.10055790104246
C            0.40535877805752        3.07111437292236        0.68139191235789
C            0.81114009255467        4.26230060909331        0.10261992138918
C            1.01697434301125        4.34220975275789       -1.26249074737907
C            0.80253912284425        3.22513743144830       -2.05279699086975
C            0.39857001460721        2.03665174874528       -1.47602834130639
C           -0.14198689989010        0.57007811965177        2.00132589291921
C            1.10161721891476        0.72806617924709        2.60620966987908
C            1.22775726912818        0.67938792017829        3.98174622313432
C            0.11582551762625        0.46306085928883        4.77883843911266
C           -1.12250169584006        0.30322146996703        4.18559182961194
C           -1.25194813599374        0.35615757872668        2.80712093208485
H           -7.64454371961886       -0.95540376417408        0.10935044622478
H           -6.26192265626834       -2.02906519474845        0.35126530274873
H           -6.37694622166233       -0.51568447633667        1.25788344437845
H           -5.77921972993700       -1.96098993676269       -2.15676863616879
H           -7.15546246364849       -0.87967337149754       -2.39919705037388
H           -5.54955138871963       -0.40218124883910       -2.95878798373956
H           -8.26578312401470        1.21857173692581       -1.25670085572891
H           -8.41282011776369        3.67825301250800       -1.21936810236410
H           -6.42359414484188        5.04733095707970       -0.79281014843761
H           -4.22845202697850        3.98134255925208       -0.39077423081685
H           -2.22612199586119        2.39921748566405        0.01405969860108
H           -3.78854285188922       -2.27972650923412       -0.49432532167681
H           -2.05989520666235       -3.29594220025583        2.11563479061249
H           -2.94846572263424       -5.60396273585834        2.20821264132909
H           -3.08751821315183       -6.95210404237660        0.14767654016638
H           -2.34283586747457       -6.00020998642667       -2.00187098511154
H           -1.45902806804962       -3.69304954630697       -2.09013917282978
H            0.67697589734272       -3.89394879755706       -0.32124020018512
H            3.03862961857185       -3.49818670119280       -0.60440555312954
H            4.77912076003026       -2.97348560150327       -1.53008681582641
H            7.14461910632018       -2.56983609943396       -1.84100819762552
H            2.38654444229501        0.71303869784667       -0.17263046709620
H            0.24288999896683        3.02678890677200        1.74792234824323
H            0.96769187992988        5.13057116629320        0.72559408918069
H            1.34002054945090        5.27010041540858       -1.71028927021716
H            0.95281530387127        3.27964229272144       -3.12097572627207
H            0.23310840135512        1.16624479894533       -2.09562865583174
H            1.97907871611593        0.89586670280447        2.00103414004537
H            2.20059883288399        0.81001165612757        4.43162314588971
H            0.21474886205668        0.42129070973158        5.85333082495451
H           -1.99937505979394        0.13800926720964        4.79495940303242
H           -2.23274834004452        0.23837409975513        2.37004458829481
