  84
       -131.86010534
 C         -6.5807091688       -0.9646367019        0.3299960949
 C         -5.8195748892       -0.2590079665       -0.7969418360
 C         -6.1005317665       -0.9380121941       -2.1405315447
 C         -6.1581405371        1.2151124908       -0.8440475531
 C         -7.3743534930        1.8158217693       -1.0832913193
 C         -7.4480552916        3.2031528392       -1.0790486327
 C         -6.3211120301        3.9754176601       -0.8385260312
 C         -5.0942045269        3.3816297302       -0.5960983752
 C         -5.0173813638        1.9970690788       -0.5995153832
 C         -3.8916104071        1.1120294202       -0.3873551850
 C         -2.5638204066        1.3807793247       -0.0968981748
 C         -1.6664667975        0.3371451946        0.0567005903
 C         -2.1082382622       -0.9908632546       -0.0947800905
 C         -3.4608589510       -1.2597251621       -0.3625622387
 C         -4.3372292200       -0.2161652898       -0.5048099466
 N         -1.2081660881       -2.0347603848       -0.0088190085
 C         -1.7067396394       -3.3694103339       -0.0071309734
 C         -2.0909276907       -3.9428679358        1.1968962024
 C         -2.5811190600       -5.2372179806        1.2117461522
 C         -2.6880472585       -5.9543988682        0.0317928606
 C         -2.3041084163       -5.3786569461       -1.1685351942
 C         -1.8130271545       -4.0855322983       -1.1929122520
 C          0.1457198726       -1.8217894115       -0.0768437995
 C          1.0440682165       -2.8854157074       -0.2790815189
 C          2.3812293066       -2.6587428648       -0.4505886560
 C          2.9160687618       -1.3457571412       -0.4337801244
 C          4.3004804059       -1.0712635557       -0.6234517563
 C          5.1929568260       -2.0559183252       -1.1558842580
 C          6.5222130571       -1.8362410250       -1.3535818180
 C          7.1306798608       -0.5956683400       -1.0238824943
 C          8.4963699686       -0.3979914072       -1.2222295351
 N          9.6294941257       -0.2717631737       -1.3906063578
 C          6.3033285142        0.4163373555       -0.4980747050
 N          6.6936592989        1.6289941876       -0.1270374506
 S          5.4025287086        2.4506536992        0.4303973476
 N          4.2896792926        1.2535587374        0.2123666130
 C          4.8884143965        0.1900228190       -0.3054999728
 C          2.0013730283       -0.2988526461       -0.1802623705
 C          0.6636107670       -0.5138047036        0.0206986590
 C         -0.2424784993        0.6080257633        0.4832893930
 C          0.2067777874        1.9413811775       -0.0930166324
 C          0.3612369375        3.0813925651        0.6817515282
 C          0.7554095758        4.2751272577        0.1004792391
 C          0.9900080469        4.3461081051       -1.2605372651
 C          0.8159654326        3.2173903412       -2.0439939201
 C          0.4226084375        2.0263952760       -1.4647357752
 C         -0.1380435599        0.5779345568        2.0143607676
 C          1.1030503125        0.7695114373        2.6146020299
 C          1.2348887610        0.7284321852        3.9897892289
 C          0.1313130849        0.4858616297        4.7910029839
 C         -1.1042208575        0.2914525011        4.2022321082
 C         -1.2394838809        0.3366581947        2.8239878276
 H         -7.6510651873       -0.9258038558        0.1427860125
 H         -6.2759425336       -2.0067285337        0.3974444529
 H         -6.3774908958       -0.4793040629        1.2823455364
 H         -5.7913973535       -1.9804383617       -2.1095519277
 H         -7.1628578362       -0.8969060785       -2.3679494619
 H         -5.5554502928       -0.4356796173       -2.9368225323
 H         -8.2594328325        1.2263717213       -1.2734879489
 H         -8.3951510304        3.6867952778       -1.2675526328
 H         -6.4033360109        5.0523212646       -0.8419140420
 H         -4.2158482210        3.9814381392       -0.4105141808
 H         -2.2256884578        2.3979638710        0.0252532216
 H         -3.7955569340       -2.2806614972       -0.4643763748
 H         -2.0013161951       -3.3716947484        2.1090438878
 H         -2.8792409144       -5.6855336138        2.1472467154
 H         -3.0710558318       -6.9633299289        0.0467242624
 H         -2.3880775091       -5.9364356054       -2.0888847977
 H         -1.5135555461       -3.6240115884       -2.1223497441
 H          0.6699006152       -3.8981638434       -0.2957454761
 H          3.0321821443       -3.5094459195       -0.5716334945
 H          4.7858936679       -3.0099960949       -1.4505993242
 H          7.1480186354       -2.6105122249       -1.7722452208
 H          2.3899638337        0.7053609068       -0.1509578592
 H          0.1745892410        3.0439954788        1.7446697165
 H          0.8801035703        5.1523687957        0.7181003177
 H          1.3048736984        5.2758952517       -1.7101697986
 H          0.9899854751        3.2644635208       -3.1088736036
 H          0.2873510763        1.1476079821       -2.0796948388
 H          1.9736971080        0.9577715438        2.0057667380
 H          2.2052944913        0.8861546651        4.4361491398
 H          0.2344345446        0.4513007128        5.8653382129
 H         -1.9745206181        0.1057840899        4.8151233295
 H         -2.2182896580        0.1925645522        2.3902507398
