84
 energy: -131.900708211597 gnorm: 0.000081411404 xtb: 6.7.1 (edcfbbe)
C           -5.62113615951958       -0.48423323019466       -0.49523102031420
C           -4.60909262444346        0.23225528883871       -1.39476083647220
C           -4.63724272923744       -0.35816176147923       -2.80741134031631
C           -4.85906313406369        1.72425114522600       -1.41986338541179
C           -5.96890565843611        2.40731268798566       -1.86627138601461
C           -5.97805621510726        3.79421338354335       -1.78961040779288
C           -4.89189127063962        4.48314276525605       -1.27331790595632
C           -3.77173760775773        3.80440062599902       -0.82159722934366
C           -3.75921522878246        2.42147726513704       -0.89776830989331
C           -2.74783303157351        1.45630390074691       -0.50497148427381
C           -1.51472747447230        1.63706250491208        0.10254489305492
C           -0.75686352289780        0.52378690407864        0.42028812302782
C           -1.15976207064402       -0.74422826933864       -0.04108290173567
C           -2.42308193618775       -0.93246298629140       -0.59873808078493
C           -3.22103965323268        0.17017438936787       -0.79947627101004
N           -0.20881697718072       -1.76669113226844       -0.01460363491489
C           -0.61532550265100       -3.11128900444442       -0.22791469561312
C           -0.83602900132375       -3.91663819848740        0.88058462069682
C           -1.23803936925704       -5.22954542383242        0.70628229999792
C           -1.42032349566999       -5.73841422474122       -0.56860934374569
C           -1.20246009857568       -4.93308469400675       -1.67445134881250
C           -0.80125521036754       -3.61946648722201       -1.50852515637653
C            1.09785294376083       -1.37796850110367       -0.25647891809372
C            2.00593348215784       -2.14996794597067       -0.97663830037641
C            3.20925981792749       -1.60677501546445       -1.37073837724728
C            3.50804007032421       -0.26639332292177       -1.11446832896807
C            4.71706352222782        0.35348365541042       -1.64133496063809
C            4.76918648011392        1.70064584739196       -1.95924266609200
C            5.91171805835929        2.32360150477529       -2.46593685571917
C            7.08641271620461        1.62874781178951       -2.68408678397724
C            8.23603526492866        2.26149467167419       -3.19558598154656
N            9.16204626093309        2.79451286050359       -3.61292349113309
C            7.09366045762292        0.24925406176777       -2.37455883504856
N            8.11284368112224       -0.59771639980068       -2.49681502538908
S            7.63597685692461       -2.05020501283967       -2.00536614640709
N            6.12108634897194       -1.68211039846100       -1.61851441661910
C            5.90833876040668       -0.38767091163319       -1.85986360878157
C            2.62883395749679        0.47278942474154       -0.31451606225594
C            1.48730867259576       -0.10084065951598        0.19888867285092
C            0.53137940006394        0.48218462240323        1.21849384933097
C            0.95263310583141        1.72068290964525        1.98408817587829
C            0.00318763738977        2.56807984840292        2.54909013651498
C            0.38177222674460        3.65575658145658        3.31549358189253
C            1.71890832396242        3.90386383060633        3.56764632301115
C            2.66709847039013        3.01739437826036        3.08996878763339
C            2.28665753330257        1.92990829262323        2.32414137525263
C            0.36077970179430       -0.53435957862936        2.35963006138632
C            1.43656425707793       -1.29897326817001        2.79180443274148
C            1.29229923407273       -2.18360281404128        3.84543080089544
C            0.07295117894546       -2.30922862639186        4.48861599927481
C           -0.99917390658545       -1.53753277806536        4.07430803398182
C           -0.85514211665514       -0.65349413139160        3.02007788240520
H           -6.62493407894145       -0.38399771289606       -0.90123985773810
H           -5.37746089085570       -1.54186316494089       -0.42190803046143
H           -5.60638034558651       -0.05391310410379        0.50393624910210
H           -4.39773133910540       -1.41878771516824       -2.77896537547692
H           -5.62404444727622       -0.23622071245491       -3.24764673539955
H           -3.91007373067492        0.14697251813828       -3.43972092894483
H           -6.82183434191722        1.88085244909459       -2.26986241100331
H           -6.84211317504886        4.34215964122709       -2.13611628196985
H           -4.92038093853164        5.56200080695851       -1.22274044902627
H           -2.92654080793167        4.34365172591976       -0.41973801879507
H           -1.15970076894070        2.63106388955932        0.32241987090055
H           -2.74744030149927       -1.92010334345500       -0.88959528614288
H           -0.68983966782819       -3.50634897248313        1.86859398193194
H           -1.40864460306703       -5.85619062910114        1.56877471902455
H           -1.73352239716595       -6.76303943305642       -0.70189744770991
H           -1.34686407492956       -5.32808022238192       -2.66922381798621
H           -0.63422001817054       -2.98143807119636       -2.36464120679827
H            1.75678455499403       -3.16401280451756       -1.24914872974950
H            3.90611902654695       -2.20666574288534       -1.93238538074638
H            3.88073670037592        2.30100126629977       -1.83509258298643
H            5.87758466464140        3.37776865192849       -2.69981836906229
H            2.87258048172155        1.49314670131410       -0.06545363494106
H           -1.04852288983904        2.36853320383419        2.42098329886339
H           -0.37690559148873        4.30468810809318        3.72850450660631
H            2.01587216666933        4.75759575448782        4.15828682194519
H            3.71162898773565        3.16265478556511        3.32476159745161
H            3.04311491371362        1.22436748483409        2.01979809956528
H            2.39238692293438       -1.21480313340906        2.29585457594025
H            2.13638205059066       -2.77785725915760        4.16350322486785
H           -0.04048614657623       -3.00225393561136        5.30920961899229
H           -1.95398555214939       -1.62461830788628        4.57218535320689
H           -1.70118078882654       -0.06199010837326        2.70227507374240
