  86
       -123.02126106
 C          2.1414151659       -2.8366180607       -2.1804178311
 C          0.9502202065       -3.7239722665       -2.5231811588
 C         -0.0315398192       -3.8848135553       -1.3616687985
 C          0.5204101056       -4.7551797928       -0.2323100390
 C         -0.4440876686       -4.8807171336        0.9583934762
 C         -0.4146175137       -6.2879825135        1.5693925614
 C         -1.1580780506       -7.3120037190        0.7200482108
 C         -0.1117178418       -3.8554478112        2.0602285682
 N         -0.0749381130       -2.5018380253        1.5818047888
 C          1.0467335869       -1.7752643894        1.2645222730
 C          2.3916716425       -2.0865256532        1.4231278275
 C          3.3299730586       -1.1565283536        1.0288531070
 C          2.9528298627        0.0721449584        0.4729292557
 N          3.9463165303        0.9903723647        0.0943888277
 C          4.0313576213        2.2996165545        0.5189002890
 C          3.2095373228        2.9998975325        1.3905155255
 C          3.5371588233        4.3121003378        1.6709992660
 C          4.6573744538        4.9188027267        1.1063576964
 C          5.4882787652        4.2219728829        0.2523678356
 C          5.1806092782        2.9007173591       -0.0451202699
 C          5.8104046227        1.8949284099       -0.8532733374
 C          6.9444690444        1.8816097212       -1.6547643732
 C          7.2646922756        0.7203966444       -2.3288960143
 C          6.4640468468       -0.4151731585       -2.2219501338
 C          5.3317415529       -0.4278639890       -1.4308852625
 C          5.0159708741        0.7306040834       -0.7351775156
 C          1.6144091725        0.3935729917        0.3119804736
 C          0.6592469647       -0.5276555066        0.7159306959
 C         -0.7744417426       -0.5191365884        0.7031590243
 C         -1.7158227402        0.4059947967        0.2765633305
 C         -3.0592416502        0.0937254245        0.4163820037
 N         -4.0404864039        1.0100124280        0.0031965274
 C         -4.1116711706        2.3371331867        0.3721702493
 C         -3.2944997900        3.0616185784        1.2284810622
 C         -3.6051590026        4.3898446209        1.4462468343
 C         -4.7051206803        4.9896392312        0.8362931406
 C         -5.5332964404        4.2691660355       -0.0005022303
 C         -5.2419413609        2.9317906283       -0.2354812595
 C         -5.8745774861        1.9036679598       -1.0124305702
 C         -6.9957850367        1.8761465202       -1.8313721456
 C         -7.3239547049        0.6943909424       -2.4647463769
 C         -6.5420964946       -0.4473696316       -2.3013606542
 C         -5.4224078261       -0.4453438331       -1.4924104395
 C         -5.1000031667        0.7336126899       -0.8349596100
 C         -3.4550736898       -1.1289577093        0.9739489930
 C         -2.5306371003       -2.0664170833        1.3840709195
 C         -1.1825385388       -1.7610288753        1.2470701041
 H          2.7697085803       -2.6946848348       -3.0569314796
 H          2.7494340379       -3.2805960386       -1.3961766231
 H          1.8031693906       -1.8605573890       -1.8384891048
 H          0.4177037220       -3.2808033538       -3.3677284879
 H          1.3060582274       -4.7082070430       -2.8374221983
 H         -0.2929344819       -2.8945833282       -0.9867094438
 H         -0.9491976008       -4.3458124336       -1.7371769648
 H          0.7253860835       -5.7469380934       -0.6397607515
 H          1.4696714327       -4.3474066821        0.1145805239
 H         -1.4608991190       -4.6818632764        0.6041595529
 H          0.6235603724       -6.6012756093        1.7000580639
 H         -0.8758368007       -6.2586043036        2.5597188855
 H         -0.7375635671       -7.3737304057       -0.2803469810
 H         -2.2077390059       -7.0407153563        0.6313454444
 H         -1.0965918865       -8.2971510681        1.1760966759
 H          0.8613057021       -4.0940223340        2.4954293222
 H         -0.8612885735       -3.9227587287        2.8566931937
 H          2.7112778192       -3.0232034803        1.8548469939
 H          4.3813115464       -1.3653647517        1.1576270868
 H          2.3480115319        2.5319490664        1.8431841295
 H          2.9130276758        4.8797935554        2.3457844395
 H          4.8777984557        5.9477898553        1.3489455665
 H          6.3631177420        4.6889013937       -0.1746777898
 H          7.5572675950        2.7655149577       -1.7493741187
 H          8.1433509990        0.6887906428       -2.9559718443
 H          6.7333809686       -1.3044244401       -2.7731209154
 H          4.7065614163       -1.3055127848       -1.3658087091
 H          1.3261581101        1.3371645553       -0.1252259315
 H         -1.4137839536        1.3436939067       -0.1637219091
 H         -2.4492111713        2.6008931280        1.7174763223
 H         -2.9830543211        4.9762495806        2.1064658728
 H         -4.9127390874        6.0314943791        1.0304762148
 H         -6.3931650415        4.7303740458       -0.4627254839
 H         -7.5932488772        2.7647294618       -1.9698515138
 H         -8.1931404234        0.6511803009       -3.1042084555
 H         -6.8156881685       -1.3533128860       -2.8222801924
 H         -4.8122362773       -1.3297644324       -1.3850152207
 H         -4.5098299440       -1.3280364442        1.0892876416
 H         -2.8572231478       -3.0024107923        1.8100803222
