49
 energy: -83.086715538537 gnorm: 0.000088408601 xtb: 6.7.1 (edcfbbe)
N            8.77828945369540       -2.54490656483675       -0.00007867583844
C            7.92025799473858       -1.78258901244437       -0.00011442153998
C            6.86968938804165       -0.84071840650619       -0.00010609957540
C            7.14707132615125        0.52644461263920       -0.00021086271461
C            6.11489914983614        1.45306153643710       -0.00023368863573
C            4.79390283799762        1.04357163874188       -0.00015958976306
C            4.49020263681119       -0.31485374814085       -0.00005213298514
C            5.53443228428748       -1.25532156496341       -0.00002031783187
S            4.96892813427533       -2.90784195453785        0.00012773842997
C            3.30791914145098       -2.35895850427843        0.00013673576683
C            2.18475580735397       -3.17409939598398        0.00023338357266
C            0.94098657020821       -2.58136211499225        0.00022947185332
C            0.80842297466833       -1.18631283755882        0.00011665762873
C           -0.52362310167303       -0.57973572060552        0.00005224663805
N           -1.57776564539867       -1.39052017052455        0.00004384715366
C           -2.76976153656118       -0.79692336777893       -0.00000589255243
C           -3.96026482084031       -1.64659471531503       -0.00005063842654
C           -3.83254212529300       -3.03529996058537        0.00007366535302
C           -4.95920000617129       -3.83485485198129        0.00006003836846
C           -6.22076397239585       -3.25906810018772       -0.00008670604636
C           -6.35456330700687       -1.87876082372354       -0.00021681928870
C           -5.23175777280751       -1.07379491049268       -0.00019677012593
N           -2.94186904816134        0.52250683312967       -0.00003272049183
C           -1.83323639855151        1.25809854220906        0.00003383326154
C           -1.97358206267062        2.71421132762325        0.00003028797437
C           -0.84187198125951        3.52897647354251        0.00014780957272
C           -0.97705888196263        4.90382951814932        0.00020117788822
C           -2.23926184386692        5.47820537770963        0.00013168137309
C           -3.36874709830727        4.67370825085225        0.00000747602003
C           -3.23992607563695        3.29806541801073       -0.00004665645471
N           -0.60292033812876        0.74845459447073        0.00006495262755
C            1.93754862202123       -0.37654627037463        0.00003034603931
C            3.19847430014534       -0.95583422076763        0.00003882072857
H            8.17667187135475        0.85107477401609       -0.00027725169880
H            6.35093992784480        2.50585027897997       -0.00031789563945
H            3.99503127208693        1.76826058213335       -0.00018719489145
H            2.28921705822930       -4.24763126075506        0.00031908447598
H            0.04568431558218       -3.18189200060965        0.00028518397250
H           -2.84378112654184       -3.46667705713978        0.00020590701289
H           -4.85531088205502       -4.90974675354371        0.00018056752443
H           -7.09991843781258       -3.88625106092997       -0.00009932125699
H           -7.33710408613770       -1.43069985891586       -0.00035133341659
H           -5.31697569615456        0.00161213109829       -0.00030816322701
H            0.13161307186927        3.06431318964901        0.00025262818354
H           -0.09797282711942        5.53111223282944        0.00031426390263
H           -2.34287911147181        6.55312888778988        0.00014400538813
H           -4.35135247749915        5.12162847854399       -0.00009163466039
H           -4.10766452521936        2.65714640753588       -0.00014837325586
H            1.81673804806201        0.69453612237578       -0.00006965039988
