49
 energy: -82.999831295971 gnorm: 0.000080594868 xtb: 6.7.1 (edcfbbe)
N            8.38930898017956       -1.09665997019746        0.00723728414839
C            7.43267182681008       -0.46126188665680        0.01064066299270
C            6.26489122728313        0.32755388947439        0.01491821345683
C            6.35685289965388        1.72218391034710        0.02748624126511
C            5.21147424012871        2.49983497322347        0.03182060020804
C            3.95322330811912        1.91559250631045        0.02353587772690
C            3.83305481584452        0.53196255419380        0.01088082896734
C            4.99486710757266       -0.26068044849085        0.00700892639943
S            4.65463689842317       -1.97169138687118       -0.00760888004039
C            2.93390969826818       -1.65532231676682       -0.00849943760039
C            1.92411272551792       -2.61644188888565       -0.01729637972355
C            0.61688477887786       -2.20223362897111       -0.01637454151914
C            0.28145329502069       -0.82538106895667       -0.00761213681665
C           -1.07642905879947       -0.41267218230974       -0.00681706031384
N           -2.07508648607487       -1.32871337135736       -0.00595243747095
C           -3.31981764376056       -0.93216998622656       -0.00188375635145
C           -4.38801414261754       -1.92036218262022        0.00203639717578
C           -4.08837391705461       -3.28500297359770        0.00313724741239
C           -5.10562873910853       -4.21735537441133        0.00787937752753
C           -6.43090736530145       -3.80516245077019        0.01157274631943
C           -6.73565763899095       -2.45198031429378        0.01040912045411
C           -5.72374089681078       -1.51269137883299        0.00559865793895
N           -3.65801758578662        0.37498579007946       -0.00026275025407
C           -2.64743028955176        1.26813127214008       -0.00467283108770
C           -2.98373319625127        2.68559197594926       -0.00754910153556
C           -4.31977532528236        3.09127097657200        0.00294636062839
C           -4.63713847679731        4.43511981760011       -0.00086688727570
C           -3.63069410551708        5.38931563090890       -0.01554893982558
C           -2.30067669206699        4.99319576837474       -0.02597414097822
C           -1.97533909259033        3.65210398112347       -0.02214819711310
N           -1.39124619689690        0.90817945449404       -0.00675074350683
C            1.31736208383472        0.13226832405770        0.00108180817106
C            2.63358032943253       -0.27582539289192        0.00134701414055
H            7.33408651560807        2.18079699150030        0.03365786229952
H            5.30207227145740        3.57492249277340        0.04174009224135
H            3.06602862758849        2.52889500879895        0.02703617662943
H            2.17495292976264       -3.66586499521647       -0.02429242093922
H           -0.18700767145931       -2.92094484058558       -0.02267324258242
H           -3.05306157755416       -3.59030448992954        0.00042976076396
H           -4.86777417234827       -5.27088356624242        0.00877583340209
H           -7.22424349591552       -4.53756184605269        0.01539131486881
H           -7.76669379787029       -2.13043104752096        0.01328958182827
H           -5.94398068247280       -0.45613773639631        0.00468996383093
H           -5.09159786394518        2.33703680302592        0.01411356916076
H           -5.67271217160183        4.74163907850222        0.00722025417595
H           -3.88152822074358        6.43952420497551       -0.01869152892397
H           -1.51654964488163        5.73581715621803       -0.03730843514256
H           -0.94560864889193        3.32918916712992       -0.03064873714627
H            1.05640473215707        1.17808458095806        0.00815367555043
