49
 energy: -83.086804274347 gnorm: 0.000200866321 xtb: 6.7.1 (edcfbbe)
N            8.37085771098418       -1.11922681510507       -0.04584392517509
C            7.41687681991518       -0.48273473179377       -0.00006414758186
C            6.24957402266025        0.30795894387566        0.05417146930061
C            6.34489081631547        1.69655139472593        0.15113214532926
C            5.20019216660516        2.47806434182084        0.20282449825501
C            3.94444099363468        1.90042301544183        0.15776569187109
C            3.82187534661829        0.51725192321677        0.06094219830669
C            4.98033341901310       -0.27677023574836        0.01007121416179
S            4.63513202801021       -1.98519592765906       -0.10847341158417
C            2.91679100079719       -1.65811021820327       -0.09652462500044
C            1.90986981976850       -2.61029947886007       -0.17063252885523
C            0.59920525252270       -2.18570365094778       -0.15033014208399
C            0.28578400228501       -0.82293623655616       -0.05893306356366
C           -1.11360529607663       -0.39434317092338       -0.04038846617480
N           -2.05380097374519       -1.33464541810338       -0.02663730855147
C           -3.31233187642832       -0.90001985191394       -0.00130770762139
C           -4.38283799955391       -1.89621504338778        0.02704227675273
C           -5.71771278848072       -1.49345846111082        0.00215641026702
C           -6.72665394654162       -2.43682582465543        0.03153967566846
C           -6.41508086607035       -3.78708637392751        0.08544855597767
C           -5.08962242210075       -4.19402836685994        0.11023057802305
C           -4.07614463325374       -3.25553628346518        0.08124577934342
N           -3.65350619239665        0.38603015534774        0.00060439068261
C           -2.64950096260206        1.25880738819745       -0.02206594006339
C           -2.97775625210886        2.68436506122048       -0.03047991902276
C           -1.96506242692782        3.63884623603954       -0.12053757770102
C           -2.27905837083523        4.98420328855014       -0.13031110283334
C           -3.60274810064840        5.39002031096901       -0.05102587127851
C           -4.61455457283777        4.44591636078671        0.03852243139671
C           -4.30678687825747        3.09903639187183        0.04853131447062
N           -1.36375529717345        0.91254016327832       -0.03787468367203
C            1.29927632893444        0.12467383980190        0.01511228237441
C            2.62502299007989       -0.28454425295793       -0.00254790748785
H            7.32301126415964        2.15217332517082        0.18507397698526
H            5.29595170761184        3.55004103183713        0.27832635449587
H            3.05731765077304        2.51263590107191        0.19744967300923
H            2.15442028919652       -3.65839931532249       -0.24278875414698
H           -0.20982998276031       -2.89594557445520       -0.20758303903884
H           -5.94153771246539       -0.43899101534051       -0.04114102588233
H           -7.75911088220963       -2.12071336134265        0.01204917150793
H           -7.20567093127454       -4.52244554104911        0.10799013811057
H           -4.84743468469981       -5.24565503638173        0.15206532656369
H           -3.03964726507492       -3.55404673169182        0.10198207615651
H           -0.94125922464091        3.30506011093369       -0.18485406848941
H           -1.49164295148911        5.71996307487110       -0.20069143706603
H           -3.84593673479956        6.44221255742095       -0.05889619027064
H           -5.64531933673054        4.76205431085840        0.10032837268027
H           -5.08100747493792        2.35105769627137        0.11863773910362
H            1.03907211210696        1.16819509271887        0.08734697907078
