  69
       -116.05316419
 C          7.3906514023        2.0834632517       -2.8058662374
 C          6.0082709686        2.0349450133       -2.8617618658
 C          5.2990524151        1.2232473096       -1.9951669380
 C          5.9642169071        0.4487110122       -1.0477333366
 C          7.3684647984        0.4897761238       -1.0117426610
 C          8.0701911261        1.3047939843       -1.8831148649
 O          8.0958122411       -0.2684282686       -0.1353677194
 C          7.4090240009       -1.0732977815        0.7319203247
 C          8.1523528859       -1.8318480145        1.6195317343
 C          7.5150640885       -2.6520773071        2.5364175345
 C          6.1320174455       -2.7015541806        2.5698985048
 C          5.3813239338       -1.9481586497        1.6855282500
 C          6.0046452640       -1.1329633956        0.7439277189
 N          5.2838820165       -0.3699109056       -0.1602468447
 C          3.8646678216       -0.4072511997       -0.1691857512
 C          3.2113483147       -1.5377974993       -0.6538529501
 C          1.8284587517       -1.6496761802       -0.7050724556
 C          1.0631945849       -0.5764971007       -0.2484878928
 C          1.7368352791        0.5714043234        0.2472288181
 C          0.8362144433        1.5710146709        0.6762936421
 C          1.3433249274        2.7556007048        1.1937684016
 C          2.7280977399        2.8969209953        1.2684259506
 C          3.6110494685        1.9167714745        0.8476234217
 C          3.1261384048        0.7063938381        0.3111873263
 C         -0.4785546138        1.0481132961        0.4457828421
 N         -1.6585821509        1.5366372735        0.6549153080
 C         -2.7515206875        0.8263097627        0.3480576434
 C         -4.0352708902        1.3223263196        0.5770153202
 C         -5.1669485608        0.5892052245        0.2716764480
 C         -6.4861762165        1.1355843702        0.6124361612
 C         -6.8209314866        2.4540947435        0.3032142994
 C         -8.0733943150        2.9251296968        0.6557103996
 N         -8.9802663330        2.1951311014        1.2834340783
 C         -8.6604943273        0.9491481787        1.5921084026
 C         -7.4410813779        0.3722193636        1.2854391904
 C         -5.0267539088       -0.6933030678       -0.3161508343
 C         -6.2007465820       -1.4678418782       -0.7456026237
 C         -6.3214212880       -2.8214938225       -0.4348716414
 C         -7.4392003022       -3.5093792657       -0.8748444559
 N         -8.4059432659       -2.9549323377       -1.5863947994
 C         -8.2869404851       -1.6744391433       -1.8952212768
 C         -7.2159532149       -0.8888558801       -1.5065563214
 C         -3.7694336660       -1.2098425495       -0.5433900707
 C         -2.6053954830       -0.4956286980       -0.2239348616
 N         -1.3947195312       -0.9968047268       -0.4388663043
 C         -0.3250782709       -0.3054439225       -0.1371647757
 H          7.9432579193        2.7181780338       -3.4800849954
 H          5.4730032414        2.6297520321       -3.5852705518
 H          4.2229509340        1.1824669318       -2.0473906953
 H          9.1466276583        1.3122281852       -1.8231998059
 H          9.2274059586       -1.7619493566        1.5776316988
 H          8.1003439391       -3.2411395328        3.2244112162
 H          5.6288347331       -3.3279320300        3.2898624137
 H          4.3040279635       -1.9814092760        1.7202861155
 H          3.8193297822       -2.3584721844       -1.0094337243
 H          1.3632858070       -2.5416823698       -1.0927212566
 H          0.6881933792        3.5434837766        1.5305934327
 H          3.1315039376        3.8141869409        1.6732282950
 H          4.6751284170        2.0838063343        0.9317744817
 H         -4.1238506540        2.2950498987        1.0370642205
 H         -6.1215148574        3.0871972138       -0.2218757752
 H         -8.3707425665        3.9400368651        0.4243758020
 H         -9.4241599433        0.3865602438        2.1132963570
 H         -7.2275521127       -0.6449775224        1.5763001564
 H         -5.5657234408       -3.3165771324        0.1562792409
 H         -7.5718234477       -4.5590354915       -0.6457661158
 H         -9.0944584201       -1.2589305563       -2.4838415894
 H         -7.1620969048        0.1488987111       -1.7981192748
 H         -3.6512801820       -2.1776955292       -1.0068230993
