  69
  -115.610997960800       0.447335593963363      !
 C          7.4146864063        0.1861332896       -3.5867774842
 C          6.0307650729        0.1605244508       -3.6108727514
 C          5.3132829654       -0.0347281921       -2.4444420725
 C          5.9738071534       -0.2069943671       -1.2312552451
 C          7.3791594178       -0.1746986376       -1.2146622319
 C          8.0882791393        0.0190330163       -2.3871745872
 O          8.0953341124       -0.3308941527       -0.0592478318
 C          7.3967343660       -0.4922265709        1.1067116889
 C          8.1243227923       -0.6149637571        2.2774257081
 C          7.4694214301       -0.7782543035        3.4878671941
 C          6.0858553268       -0.8160925728        3.5243920216
 C          5.3502189842       -0.6949357980        2.3593842579
 C          5.9919106173       -0.5332942501        1.1344013924
 N          5.2858378587       -0.4102655254       -0.0483972506
 C          3.8630640940       -0.4514508650       -0.0436362420
 C          3.2117030723       -1.6736777567       -0.1739321483
 C          1.8278411390       -1.7952470270       -0.1809035111
 C          1.0633933933       -0.6356560053       -0.0520222908
 C          1.7381288795        0.6070760996        0.0811329966
 C          0.8400836726        1.6900416594        0.2010433040
 C          1.3509350359        2.9733660221        0.3427089778
 C          2.7364900859        3.1292390611        0.3588166572
 C          3.6168433715        2.0675996574        0.2384266665
 C          3.1273896669        0.7537067756        0.0929694653
 C         -0.4757354527        1.1239432083        0.1389411526
 N         -1.6545690698        1.6542343115        0.1907334235
 C         -2.7490277608        0.8868304757        0.1053541960
 C         -4.0312264425        1.4353299008        0.1430865812
 C         -5.1651949793        0.6496410141        0.0499264281
 C         -6.4825330856        1.2959020050        0.0174001881
 C         -6.8098217416        2.3078641780        0.9202459958
 C         -8.0598353970        2.8960077313        0.8404194941
 N         -8.9723495146        2.5581673986       -0.0552124149
 C         -8.6601603375        1.6091689273       -0.9223814719
 C         -7.4433961149        0.9511933642       -0.9342333179
 C         -5.0270915136       -0.7570965716       -0.0618094264
 C         -6.2020047653       -1.6419106482       -0.0628463303
 C         -7.2103391838       -1.5123676937        0.8913773421
 C         -8.2795168986       -2.3899516153        0.8530175458
 N         -8.4036704759       -3.3536628003       -0.0439335961
 C         -7.4442944080       -3.4848247597       -0.9441297828
 C         -6.3280215246       -2.6681733460       -0.9976160565
 C         -3.7715471880       -1.3222539764       -0.1144389899
 C         -2.6052334889       -0.5461544222       -0.0416393681
 N         -1.3957827339       -1.0904756476       -0.0953492984
 C         -0.3243300436       -0.3423586254       -0.0175939416
 H          7.9742559689        0.3359171153       -4.4964111754
 H          5.5017098809        0.2925259690       -4.5416658261
 H          4.2350018605       -0.0558549185       -2.4610533708
 H          9.1652703583        0.0344224525       -2.3400798417
 H          9.2003438738       -0.5797875038        2.2189346953
 H          8.0422935530       -0.8735322009        4.3964581663
 H          5.5712544582       -0.9407123679        4.4643976113
 H          4.2722370826       -0.7222043079        2.3861135895
 H          3.8195176525       -2.5624016767       -0.2742812368
 H          1.3622227502       -2.7621305059       -0.2844101494
 H          0.6983467677        3.8268802111        0.4382975800
 H          3.1409643118        4.1252374834        0.4699213151
 H          4.6821653611        2.2475488132        0.2568118200
 H         -4.1156966857        2.5091358840        0.2160700377
 H         -6.1074293196        2.6098069529        1.6825710820
 H         -8.3515030485        3.6760218897        1.5321264001
 H         -9.4270669564        1.3680568203       -1.6469837973
 H         -7.2359313008        0.1975957878       -1.6785362430
 H         -7.1521145891       -0.7497892507        1.6528015446
 H         -9.0810827349       -2.3196147089        1.5765706435
 H         -7.5810905048       -4.2864159239       -1.6585902381
 H         -5.5774940122       -2.8081480112       -1.7608862971
 H         -3.6572215486       -2.3935421076       -0.1831072088
  69
  -115.610923886600       0.413610266878170      !
 C          7.4080864495        0.5434363207       -3.4147276225
 C          6.0258296327        0.4751351861       -3.4487136744
 C          5.3107521940        0.1575428710       -2.3082618930
 C          5.9697978060       -0.0902546835       -1.1064982058
 C          7.3739861258       -0.0377890716       -1.0865900566
 C          8.0816006643        0.2805357699       -2.2328511219
 O          8.0955594523       -0.3040575477        0.0449461887
 C          7.4029275377       -0.6152870395        1.1829614810
 C          8.1404335016       -0.8766635158        2.3246959478
 C          7.4970485235       -1.1785501125        3.5140289235
 C          6.1137437496       -1.2062965890        3.5596906004
 C          5.3688455853       -0.9479837239        2.4231794872
 C          5.9983545306       -0.6620016178        1.2142059284
 N          5.2834963412       -0.4043176914        0.0558203423
 C          3.8642371999       -0.4409440742        0.0580854175
 C          3.2099298118       -1.6671079343        0.1490119661
 C          1.8269729723       -1.7893943086        0.1485188220
 C          1.0626788778       -0.6264738693        0.0521723972
 C          1.7373071760        0.6201805870       -0.0368997517
 C          0.8375762500        1.7052117471       -0.1242324620
 C          1.3456831801        2.9945277083       -0.2118506183
 C          2.7305032997        3.1537629376       -0.2042155420
 C          3.6125828310        2.0898135526       -0.1186643108
 C          3.1266858488        0.7688470224       -0.0357909396
 C         -0.4776100148        1.1355800284       -0.0928709591
 N         -1.6571909196        1.6659082399       -0.1397530474
 C         -2.7507315951        0.8947118839       -0.0881157041
 C         -4.0340977312        1.4409086243       -0.1214189616
 C         -5.1664450328        0.6502321376       -0.0580707262
 C         -6.4856265081        1.2928692681       -0.0158011843
 C         -6.8155059680        2.3182629268       -0.9023090759
 C         -8.0681766663        2.8995364391       -0.8144012260
 N         -8.9796711185        2.5437747604        0.0755219812
 C         -8.6645765993        1.5824095830        0.9278715911
 C         -7.4454356714        0.9285337065        0.9294654694
 C         -5.0272209227       -0.7587327232        0.0158051322
 C         -6.2014679803       -1.6435922198       -0.0118629710
 C         -6.3271140166       -2.6992355161        0.8899795978
 C         -7.4448695431       -3.5121984459        0.8131275128
 N         -8.4070847190       -3.3500474372       -0.0791483698
 C         -8.2833161821       -2.3583563596       -0.9454210934
 C         -7.2118703745       -1.4825595643       -0.9595313250
 C         -3.7703471109       -1.3223100495        0.0600060153
 C         -2.6057506389       -0.5418640576        0.0180887289
 N         -1.3955312639       -1.0861043378        0.0658462297
 C         -0.3253169027       -0.3340954105        0.0183089373
 H          7.9652598794        0.7933674268       -4.3034907867
 H          5.4952439347        0.6673302297       -4.3681219789
 H          4.2347757709        0.0976693393       -2.3410438197
 H          9.1577894762        0.3144199187       -2.1778039138
 H          9.2158394512       -0.8345872444        2.2605697022
 H          8.0778118901       -1.3821277616        4.3995525924
 H          5.6058219402       -1.4276688498        4.4853794466
 H          4.2913260093       -0.9608892202        2.4639879742
 H          3.8171964182       -2.5593948817        0.2171101519
 H          1.3610421966       -2.7592940614        0.2158648348
 H          0.6912581262        3.8490853734       -0.2816161385
 H          3.1346635347        4.1540213685       -0.2683707374
 H          4.6767422912        2.2763726563       -0.1161348783
 H         -4.1220018874        2.5161184345       -0.1647692784
 H         -6.1121612933        2.6357866659       -1.6574295226
 H         -8.3617996819        3.6919344770       -1.4910541009
 H         -9.4319625175        1.3255974628        1.6465465030
 H         -7.2358892967        0.1617180272        1.6595123065
 H         -5.5752702392       -2.8644620988        1.6469982212
 H         -7.5812967326       -4.3362534670        1.5017238540
 H         -9.0872049656       -2.2624565407       -1.6635941382
 H         -7.1539760743       -0.6979645794       -1.6983838199
 H         -3.6528421019       -2.3947837522        0.0982491586
  69
  -115.609753249800       0.119840575628815      !
 C          6.7748396678        0.8049767600       -3.6459878779
 C          5.4065261954        0.7412920720       -3.4469053950
 C          4.8927060774        0.3453826601       -2.2254924493
 C          5.7431495308        0.0125189585       -1.1736054183
 C          7.1303342561        0.0599115418       -1.3922494037
 C          7.6361580110        0.4571907115       -2.6181529605
 O          8.0309960173       -0.2899057611       -0.4236706599
 C          7.5383369870       -0.7110373618        0.7812292954
 C          8.4556199239       -1.0896898684        1.7457977471
 C          8.0200388322       -1.5062473843        2.9933605841
 C          6.6650588161       -1.5310255695        3.2764284464
 C          5.7409892369       -1.1566735420        2.3176427472
 C          6.1593764825       -0.7547412100        1.0516588136
 N          5.2617581880       -0.3814632571        0.0664303073
 C          3.8595886224       -0.4287719094        0.2842910157
 C          3.2106152301       -1.6599144347        0.3416793730
 C          1.8310917205       -1.7842175487        0.4371132392
 C          1.0633981026       -0.6191984546        0.4586988195
 C          1.7351696419        0.6320485523        0.4329929334
 C          0.8343496537        1.7194355092        0.4373766682
 C          1.3402822424        3.0126341564        0.4173466532
 C          2.7244635620        3.1729499256        0.3850219421
 C          3.6068574639        2.1063523934        0.3475874867
 C          3.1222696465        0.7825472541        0.3596430261
 C         -0.4792383876        1.1466370659        0.4247997665
 N         -1.6563084319        1.6755122835        0.3340651662
 C         -2.7453088070        0.8999680787        0.2614335536
 C         -4.0175623447        1.4424434029        0.0787953295
 C         -5.1412587802        0.6454351426       -0.0334081305
 C         -6.4255057142        1.2691179127       -0.3734752046
 C         -6.8640504690        2.4281601404        0.2669601202
 C         -8.0652543578        2.9930181063       -0.1240306994
 N         -8.8290465503        2.4995208081       -1.0844118326
 C         -8.4112446490        1.4063620109       -1.7012849666
 C         -7.2306723289        0.7556652421       -1.3916301084
 C         -5.0119646835       -0.7608659033        0.1014557463
 C         -6.1963946022       -1.6316942962        0.1143815401
 C         -7.3128709413       -1.3232333129        0.8914099993
 C         -8.3939547452       -2.1868630198        0.8765310293
 N         -8.4320360618       -3.2998238426        0.1630424268
 C         -7.3706754937       -3.6005801883       -0.5658769449
 C         -6.2336011470       -2.8132894381       -0.6245676484
 C         -3.7650726856       -1.3216357433        0.2725394889
 C         -2.6019113413       -0.5391405048        0.3293827585
 N         -1.3945425146       -1.0822111509        0.4296317018
 C         -0.3251265066       -0.3279656079        0.4562727876
 H          7.1750278941        1.1161306442       -4.5977296971
 H          4.7285285727        0.9990427772       -4.2454697344
 H          3.8259935179        0.2895782000       -2.0811951985
 H          8.7062591331        0.4842862565       -2.7463952251
 H          9.5044855547       -1.0469529219        1.4998818417
 H          8.7403544448       -1.8010275100        3.7397131383
 H          6.3205659183       -1.8409832119        4.2506382432
 H          4.6860074017       -1.1679247866        2.5415080901
 H          3.8167591832       -2.5538333756        0.2853242275
 H          1.3685327818       -2.7576437583        0.4662093248
 H          0.6841765568        3.8687010513        0.4260086880
 H          3.1273677713        4.1757424364        0.3784946919
 H          4.6703175595        2.2924078458        0.3071979153
 H         -4.0962915309        2.5143430349       -0.0229803252
 H         -6.2841388189        2.8652531867        1.0658530727
 H         -8.4390134433        3.8897488337        0.3534804929
 H         -9.0573297224        1.0375334348       -2.4873348047
 H         -6.9287482788       -0.1221318637       -1.9422932308
 H         -7.3293532030       -0.4335572108        1.5022135367
 H         -9.2779633160       -1.9788155315        1.4651078887
 H         -7.4396348873       -4.5204550103       -1.1323642181
 H         -5.3984960861       -3.0960545524       -1.2476420135
 H         -3.6555361225       -2.3900291496        0.3820401259
  69
  -115.608023373800       1.921356352965206E-002 !
 C          6.3321130326        0.7471711298       -3.7757752250
 C          4.9938893897        0.7162308035       -3.4237784153
 C          4.6120395872        0.3430424852       -2.1480495916
 C          5.5674125611        0.0018857505       -1.1932218818
 C          6.9220096353        0.0179205473       -1.5661789672
 C          7.2954159964        0.3907332069       -2.8461861026
 O          7.9185656850       -0.3409162151       -0.7001932507
 C          7.5570380703       -0.7276432488        0.5613705034
 C          8.5695541870       -1.1030390884        1.4267322554
 C          8.2681525198       -1.4867781685        2.7235792316
 C          6.9524159028       -1.4839780238        3.1548394370
 C          5.9334965994       -1.1135176761        2.2958274186
 C          6.2161449834       -0.7419769366        0.9838790870
 N          5.2208359186       -0.3702954327        0.0982454928
 C          3.8466354068       -0.4161152371        0.4532367671
 C          3.2005893901       -1.6461482335        0.5537835342
 C          1.8274572873       -1.7670287629        0.7180930578
 C          1.0625273312       -0.6002979285        0.7572705799
 C          1.7351117474        0.6498863235        0.7093368095
 C          0.8365550704        1.7390717533        0.7207005285
 C          1.3444549064        3.0308361963        0.6760584305
 C          2.7275919354        3.1878680369        0.6033449004
 C          3.6053776811        2.1188268135        0.5388287309
 C          3.1180852784        0.7966113269        0.5763794537
 C         -0.4780236722        1.1672622002        0.7111240323
 N         -1.6505834746        1.6947871573        0.5710380380
 C         -2.7346842639        0.9173533736        0.4517454611
 C         -3.9910865194        1.4538579759        0.1694474015
 C         -5.1002572998        0.6513950229       -0.0222810568
 C         -6.3463627472        1.2614610694       -0.5003413902
 C         -6.8468930338        2.4377552628        0.0576185542
 C         -8.0026480410        2.9871696278       -0.4693458523
 N         -8.6659986954        2.4633123590       -1.4865517938
 C         -8.1880300637        1.3537283629       -2.0257221597
 C         -7.0446946517        0.7163478900       -1.5794506296
 C         -4.9815352718       -0.7516878792        0.1531845448
 C         -6.1595615653       -1.6277978060        0.0796685223
 C         -7.3485173900       -1.3044534603        0.7332214785
 C         -8.4196432964       -2.1753263398        0.6367079990
 N         -8.3826870902       -3.3092838250       -0.0429463014
 C         -7.2532943975       -3.6241145926       -0.6542348739
 C         -6.1196535810       -2.8305338357       -0.6246866351
 C         -3.7518052304       -1.3053720858        0.4343686162
 C         -2.5948065534       -0.5202232588        0.5503906534
 N         -1.3939846900       -1.0616084231        0.7129868726
 C         -0.3250183445       -0.3072821161        0.7601408500
 H          6.6292712250        1.0385921413       -4.7705347693
 H          4.2356011558        0.9800343225       -4.1443882645
 H          3.5667716318        0.3111491532       -1.8876199773
 H          8.3445547365        0.3902414124       -3.0943228510
 H          9.5851727500       -1.0851006608        1.0652814476
 H          9.0621438591       -1.7798999437        3.3917555346
 H          6.7135953809       -1.7707423059        4.1670415566
 H          4.9087000683       -1.1040626668        2.6324043960
 H          3.8008654654       -2.5414624457        0.4656102289
 H          1.3647289495       -2.7392149430        0.7734144103
 H          0.6906405044        3.8885250919        0.6921095709
 H          3.1322244740        4.1896357988        0.5785432137
 H          4.6671887401        2.3007352760        0.4570706762
 H         -4.0628855396        2.5235610260        0.0421718473
 H         -6.3499063594        2.9010799476        0.8966093399
 H         -8.4221559397        3.8970483498       -0.0594876874
 H         -8.7516181630        0.9595153055       -2.8614033511
 H         -6.6881534675       -0.1758540485       -2.0711975500
 H         -7.4292123586       -0.3973929654        1.3124917992
 H         -9.3588076521       -1.9555457532        1.1274395713
 H         -7.2617558271       -4.5608904736       -1.1966538872
 H         -5.2265857328       -3.1252253133       -1.1549249104
 H         -3.6492480960       -2.3709160964        0.5736465518
