  92
       -145.33215945
 C         -1.0312951642       -3.3116558272        0.9454817592
 C         -0.7279110139       -2.2146046596       -0.0910889600
 C         -0.8318594956       -2.7882432269       -1.5161611562
 C          0.6818698435       -1.7146676832        0.1379279244
 C          1.7316459280       -2.6120485895        0.0684222228
 C          3.0485546214       -2.2273080546        0.3012042356
 N          4.0740768177       -3.1663059063        0.2239886414
 C          5.2724017250       -3.0051386713       -0.4469349028
 C          5.7223128443       -1.9358928919       -1.2083259879
 C          6.9634419566       -2.0485536730       -1.8069741648
 C          7.7377338635       -3.1972939331       -1.6655591023
 C          7.2821972230       -4.2761855432       -0.9319738261
 C          6.0399855472       -4.1853842279       -0.3204382654
 C          5.2629022196       -5.0961170339        0.4766840381
 C          5.4901151354       -6.3798536313        0.9517108940
 C          4.5227465596       -6.9749616287        1.7390333157
 C          3.3528711449       -6.2967123211        2.0709986993
 C          3.1051251587       -5.0172551640        1.6093901900
 C          4.0571659682       -4.4274270166        0.7895110956
 C          3.3142689577       -0.8980831048        0.6305627157
 C          2.2845422167        0.0070334915        0.7012745237
 C          0.9595825173       -0.3713954154        0.4354222030
 N         -0.0479741211        0.5639674751        0.5126332643
 C          0.2885100970        1.9194414664        0.7647149413
 C         -0.1149957118        2.5332999322        1.9552930449
 C          0.2421848944        3.8592897202        2.1674910700
 C          0.9689366759        4.5667627076        1.2269835244
 S          1.3696485909        6.2243842585        1.6438603437
 C          2.2239589218        6.8137827082        0.2157468068
 C          2.6204904712        8.1406323079        0.2582690468
 C          3.2972289975        8.7080081264       -0.8100746691
 C          3.5736440837        7.9312743437       -1.9278757171
 C          3.1757056145        6.6146254916       -1.9727370927
 C          2.4939317994        6.0086698599       -0.9011010087
 C          2.1156807500        4.6126234531       -1.0395011476
 O          2.4366316040        3.9677988454       -2.0815997208
 C          1.3722443661        3.9690517270        0.0091150307
 C          1.0144671997        2.6151693126       -0.1760766620
 C         -1.3668694603        0.2239752918        0.3143536642
 C         -2.3553422500        1.2196213547        0.3437383404
 C         -3.6829642864        0.9143095909        0.1703968926
 C         -4.0672933622       -0.4072610765       -0.0557149164
 N         -5.4080606489       -0.7449106360       -0.2284120567
 C         -5.9164704247       -1.5525082431       -1.2286321128
 C         -5.2712350465       -2.1304504926       -2.3129780363
 C         -6.0311921620       -2.8767334310       -3.1942847015
 C         -7.4022912953       -3.0391046766       -3.0141203457
 C         -8.0559500415       -2.4385078637       -1.9551110073
 C         -7.3133616512       -1.6849255581       -1.0573189685
 C         -7.6566889770       -0.9171651566        0.1093077306
 C         -8.8492777180       -0.6826310817        0.7787945527
 C         -8.8259261896        0.1037661740        1.9146788701
 C         -7.6317492532        0.6374145026        2.3922633879
 C         -6.4315985818        0.4163038321        1.7427336755
 C         -6.4531490981       -0.3494969788        0.5858984058
 C         -3.0849860982       -1.3904434188       -0.1261941923
 C         -1.7436898419       -1.1014618719        0.0465790063
 H         -2.0453468404       -3.6827748948        0.8323513999
 H         -0.9220332085       -2.9127067316        1.9519965463
 H         -0.3512060996       -4.1501529375        0.8297627312
 H         -0.6440729705       -2.0034192003       -2.2460868131
 H         -0.1037150378       -3.5791504745       -1.6688518568
 H         -1.8212619856       -3.1985306641       -1.6952725408
 H          1.5431313396       -3.6397099243       -0.1945096998
 H          5.1220617184       -1.0493535187       -1.3428676512
 H          7.3368045953       -1.2277303412       -2.4005552626
 H          8.7028014084       -3.2454804167       -2.1466587052
 H          7.8739561769       -5.1738866849       -0.8381399069
 H          6.4071895544       -6.8965697962        0.7136819628
 H          4.6780158846       -7.9745577667        2.1155398059
 H          2.6249930000       -6.7769286381        2.7078447199
 H          2.2087493195       -4.4894107003        1.8980160360
 H          4.3220353021       -0.5904190509        0.8591034675
 H          2.4957082982        1.0260478620        0.9764342406
 H         -0.6702925273        1.9825341148        2.6969849990
 H         -0.0340526429        4.3505124171        3.0879918420
 H          2.3899810248        8.7256698679        1.1364056249
 H          3.6037570663        9.7409448197       -0.7657403333
 H          4.1055196150        8.3583928309       -2.7653802476
 H          3.3792732443        5.9943412291       -2.8317669900
 H          1.3176500882        2.1474934386       -1.0984966241
 H         -2.0632764917        2.2461094327        0.4865684484
 H         -4.4240807849        1.6977810012        0.1749022431
 H         -4.2144099897       -1.9860820872       -2.4791236725
 H         -5.5506036375       -3.3380541441       -4.0441706250
 H         -7.9606078588       -3.6319728428       -3.7223024352
 H         -9.1223799028       -2.5447488935       -1.8287512784
 H         -9.7719376347       -1.1118876592        0.4191915203
 H         -9.7429135518        0.3016529541        2.4485042634
 H         -7.6411805255        1.2345585537        3.2918281244
 H         -5.5085441806        0.8179477867        2.1326864175
 H         -3.3971295231       -2.4063010880       -0.3036580376
