  72
       -113.91528150
 C         -2.2273626598       -0.0153525140       -3.1916884361
 C         -3.1313108500       -0.0060286431       -2.2053091877
 C         -2.7771809370       -0.0060637268       -0.7375623762
 C         -1.3079226088       -0.0200205310       -0.4826140638
 C         -0.4173366295       -0.0227199694       -1.4847275625
 C         -0.8291927891       -0.0222265491       -2.8952901414
 C          0.2889919353       -0.0264330581       -3.6652443895
 C          1.4490776680       -0.0259440518       -2.7933996477
 C          1.0189214519       -0.0239792663       -1.4781294563
 C          1.9136465515       -0.0131537030       -0.2795837885
 C          3.3471073902       -0.0070146682       -0.7174449283
 C          4.4894275164        0.0076195407        0.0358793525
 C          4.7104676946        0.0217382993        1.4379627534
 C          5.9840766744        0.0359693107        1.9034571545
 C          7.1012021780        0.0365463657        1.0158544856
 C          6.9434975151        0.0229330605       -0.3328447277
 C          5.6350740423        0.0081473062       -0.8773254614
 C          5.1751931066       -0.0057560180       -2.1730532922
 C          3.7482850831       -0.0145682503       -2.1249084593
 C          2.8242038734       -0.0233682791       -3.1327508419
 C          1.6408221367       -1.3028402657        0.4758979574
 C          1.9509459287       -2.4877411726       -0.1874717153
 C          1.7129353116       -3.7217978244        0.3826952128
 C          1.1522961211       -3.7980043855        1.6488932165
 C          0.8428310698       -2.6371835075        2.3239930911
 C          1.0834071401       -1.3939549283        1.7420629084
 S          0.6181117192       -0.0020326586        2.7248959456
 C          1.0687497244        1.3829300623        1.7257534608
 C          0.8151914088        2.6303431298        2.2929918598
 C          1.1096730821        3.7863384965        1.6029850661
 C          1.6682931317        3.7010751435        0.3364793146
 C          1.9205732485        2.4628767858       -0.2185149540
 C          1.6259074373        1.2826753309        0.4600829794
 C         -3.3977391687       -1.2523772375       -0.1189982761
 C         -2.6125542528       -2.3679399575        0.1490221421
 C         -3.1706775210       -3.5296520726        0.6503660127
 C         -4.5335835230       -3.5996887211        0.8877630009
 C         -5.3280241115       -2.4998503729        0.6322801842
 C         -4.7619623905       -1.3329667882        0.1339970550
 S         -5.8474287784        0.0323165967       -0.1626475918
 C         -4.7287211405        1.3707291240        0.1329185918
 C         -5.2653576053        2.5506209429        0.6330582233
 C         -4.4442698206        3.6311297381        0.8870511292
 C         -3.0843198095        3.5290606785        0.6448313254
 C         -2.5554495677        2.3543701947        0.1420364076
 C         -3.3673712263        1.2573186547       -0.1229047343
 H         -2.5398240538       -0.0156291551       -4.2263583515
 H         -4.1880267261        0.0020916843       -2.4235509250
 H         -1.0144377656       -0.0234966409        0.5565638184
 H          0.3396869349       -0.0281435247       -4.7386169991
 H          3.8665150232        0.0219714434        2.1119060042
 H          6.1778565981        0.0482664439        2.9664695831
 H          8.0921075555        0.0478933168        1.4472913808
 H          7.7956111801        0.0235727327       -0.9975594231
 H          5.7628781552       -0.0084515709       -3.0714613435
 H          3.1239464997       -0.0269865907       -4.1718143312
 H          2.3883261999       -2.4257835449       -1.1721775238
 H          1.9622290599       -4.6221846685       -0.1575776247
 H          0.9596112804       -4.7557158720        2.1075075653
 H          0.4071191771       -2.6714736126        3.3112859454
 H          0.3805757225        2.6717202908        3.2805427188
 H          0.9067340053        4.7472330789        2.0504187151
 H          1.9049056450        4.5974146590       -0.2160641880
 H          2.3560443038        2.3941746637       -1.2035325380
 H         -1.5524724991       -2.3331841049       -0.0521916129
 H         -2.5375768930       -4.3811608898        0.8475941794
 H         -4.9766340359       -4.5050457732        1.2729616558
 H         -6.3915591370       -2.5298107743        0.8131748630
 H         -6.3274620987        2.6063032217        0.8163453777
 H         -4.8646423581        4.5463628472        1.2744135386
 H         -2.4299576663        4.3646229124        0.8407015036
 H         -1.4970892604        2.2954294183       -0.0618195872
  72
       -113.91501740
 C         -2.2310215434        0.0895704340       -3.1879037059
 C         -3.1347314116        0.0751247757       -2.2013035595
 C         -2.7795626417        0.0199786373       -0.7348754457
 C         -1.3109275155        0.0619030292       -0.4793646366
 C         -0.4203382985        0.0728037988       -1.4815454077
 C         -0.8329282481        0.0695524586       -2.8919233248
 C          0.2844746098        0.0421527878       -3.6624869474
 C          1.4448047160        0.0240028904       -2.7912871958
 C          1.0158507095        0.0532832099       -1.4758471334
 C          1.9125433321        0.0559517299       -0.2787413282
 C          3.3427949052       -0.0403912901       -0.7165727316
 C          4.4835062348       -0.1024298658        0.0367499487
 C          4.7050988223       -0.1068624415        1.4388081786
 C          5.9763284993       -0.1875470241        1.9041120413
 C          7.0906121128       -0.2664557492        1.0163711457
 C          6.9323918126       -0.2634953250       -0.3323560674
 C          5.6263183307       -0.1810621393       -0.8766187278
 C          5.1666799322       -0.1608539772       -2.1723301393
 C          3.7423350015       -0.0753601523       -2.1240342967
 C          2.8184141938       -0.0376660679       -3.1313026572
 C          1.5658817827       -1.1771228355        0.5363640176
 C          1.7967703532       -2.4075377942       -0.0740511447
 C          1.4871770310       -3.5976043483        0.5529923151
 C          0.9354734324       -3.5816070052        1.8252564106
 C          0.7035218307       -2.3745506312        2.4484533018
 C          1.0133669084       -1.1763564478        1.8081618470
 S          0.6308164903        0.2859260592        2.7225280507
 C          1.1580418827        1.5928249626        1.6584230064
 C          0.9828585846        2.8782476106        2.1679665133
 C          1.3493599673        3.9812824178        1.4278109280
 C          1.9019128622        3.8040352185        0.1682034904
 C          2.0744302907        2.5289668889       -0.3303852835
 C          1.7064224009        1.4011585515        0.3997888026
 C         -3.3257013982       -1.2997119128       -0.1973010768
 C         -2.4780278463       -2.3828133110        0.0056479064
 C         -2.9697665544       -3.6052593729        0.4254048078
 C         -4.3272350125       -3.7704717302        0.6449857692
 C         -5.1830039239       -2.7037592390        0.4560054956
 C         -4.6838724338       -1.4755953983        0.0401688334
 S         -5.8464205900       -0.1590561385       -0.1713975967
 C         -4.8070693038        1.2190271747        0.2178820631
 C         -5.4099607339        2.3287505644        0.7966673989
 C         -4.6518209700        3.4351088147        1.1244075319
 C         -3.2891517037        3.4298881874        0.8752059388
 C         -2.6946946362        2.3249329383        0.2938397133
 C         -3.4421353398        1.2023069188       -0.0433658313
 H         -2.5435655918        0.1175310778       -4.2221109457
 H         -4.1915905692        0.0884623100       -2.4187938489
 H         -1.0173254024        0.0543255556        0.5597263415
 H          0.3342910103        0.0294124296       -4.7358636271
 H          3.8635105670       -0.0472981465        2.1130638291
 H          6.1703922771       -0.1934946607        2.9671890944
 H          8.0795393747       -0.3294216407        1.4479556752
 H          7.7821736191       -0.3232058880       -0.9973655912
 H          5.7528626488       -0.2054194530       -3.0705738736
 H          3.1164397156       -0.0639663150       -4.1706019197
 H          2.2281608779       -2.4165654994       -1.0635061716
 H          1.6741452012       -4.5351557164        0.0520222944
 H          0.6882941187       -4.5034835649        2.3289527623
 H          0.2747171584       -2.3372972419        3.4386542978
 H          0.5524406091        2.9909018632        3.1518432623
 H          1.2073960605        4.9724202218        1.8305755235
 H          2.1959541110        4.6579424099       -0.4226701677
 H          2.5053869532        2.3896446066       -1.3098042894
 H         -1.4205449446       -2.2753057834       -0.1806794676
 H         -2.2879645194       -4.4287724638        0.5727251377
 H         -4.7186457913       -4.7236693171        0.9651642833
 H         -6.2437925794       -2.8070394052        0.6256437030
 H         -6.4727075822        2.3093746105        0.9836102403
 H         -5.1228950264        4.2952498277        1.5745044763
 H         -2.6851697777        4.2882124901        1.1268036273
 H         -1.6357267752        2.3407349119        0.0835702690
  72
       -113.91318422
 C         -2.2549373450       -0.1632026114       -3.4954690599
 C         -3.2078014902       -0.1160989374       -2.5555841728
 C         -2.9320102549       -0.1079583228       -1.0792281861
 C         -1.4867937637       -0.3134122593       -0.7434988399
 C         -0.5418786245       -0.2609537771       -1.6940833237
 C         -0.8749922060       -0.1893114943       -3.1224596522
 C          0.2838670776       -0.1351527459       -3.8282684100
 C          1.3912752198       -0.1228205241       -2.8916093086
 C          0.8895980766       -0.2206491472       -1.6044444056
 C          1.7068751891       -0.1447807398       -0.3542410846
 C          3.1464231342        0.0888119612       -0.7032789290
 C          4.2305687749        0.2461567706        0.1173833353
 C          4.3664677534        0.2696872144        1.5300681696
 C          5.5968134722        0.4527342512        2.0704548390
 C          6.7521930504        0.6233672051        1.2512247154
 C          6.6758990942        0.6080179011       -0.1046262122
 C          5.4164807439        0.4168306840       -0.7255095008
 C          5.0404114334        0.3531620800       -2.0467319677
 C          3.6284076047        0.1495069505       -2.0841792571
 C          2.7747334895        0.0377374032       -3.1466179850
 C          1.6157000952       -1.4940948263        0.3404134029
 C          2.1038245220       -2.5910375151       -0.3656469030
 C          2.0864948268       -3.8633970269        0.1680500746
 C          1.5729294684       -4.0689211000        1.4397290045
 C          1.0820230463       -2.9972666211        2.1528468412
 C          1.0997046800       -1.7143239978        1.6080593078
 S          0.4274161277       -0.4527855846        2.6416550773
 C          0.5816741584        1.0100675276        1.6681104717
 C          0.0562209322        2.1643300094        2.2453370212
 C          0.1138570751        3.3689381823        1.5797553334
 C          0.7149892018        3.4298626603        0.3320194014
 C          1.2350637230        2.2839689460       -0.2342206771
 C          1.1713928491        1.0531027659        0.4138930746
 C         -3.7644953614       -1.1572089883       -0.3649380719
 C         -4.2807013529       -2.2368952653       -1.0714929531
 C         -4.9904074191       -3.2391360851       -0.4355897968
 C         -5.1947146629       -3.1822141734        0.9329062838
 C         -4.6837344113       -2.1220560167        1.6538055360
 C         -3.9694506363       -1.1187309626        1.0098081706
 S         -3.3282126812        0.1790009471        2.0249388501
 C         -3.2896310317        1.5062057402        0.8623519081
 C         -3.3851920175        2.7924498326        1.3798749781
 C         -3.3443796819        3.8842810706        0.5380908942
 C         -3.2237312017        3.6885802285       -0.8275011134
 C         -3.1303327054        2.4074298712       -1.3386813304
 C         -3.1610709723        1.2957363076       -0.5062180785
 H         -2.5101448980       -0.1551869946       -4.5461808326
 H         -4.2516619782       -0.0440690227       -2.8262732676
 H         -1.2464300597       -0.4213692758        0.3028315980
 H          0.3939181708       -0.0807611376       -4.8960538475
 H          3.4941863253        0.1422496843        2.1534405284
 H          5.7254674585        0.4734624896        3.1432908891
 H          7.7051019439        0.7668245867        1.7408406096
 H          7.5564484556        0.7372384416       -0.7178919187
 H          5.6750348123        0.4433203669       -2.9080167684
 H          3.1329835021        0.0961285305       -4.1654777969
 H          2.5103285428       -2.4286340324       -1.3521743365
 H          2.4747099148       -4.6929104922       -0.4030222251
 H          1.5561809637       -5.0575784210        1.8721603785
 H          0.6764357271       -3.1320620653        3.1444822009
 H         -0.4025422753        2.0909888977        3.2198925998
 H         -0.3041366524        4.2553179302        2.0313417889
 H          0.7736728102        4.3679005971       -0.1985621212
 H          1.7023960703        2.3293633286       -1.2064108324
 H         -4.1038817768       -2.3007042082       -2.1342852915
 H         -5.3761492151       -4.0676026918       -1.0096381764
 H         -5.7468452934       -3.9601430734        1.4371505472
 H         -4.8255805850       -2.0586197238        2.7217188099
 H         -3.4816156514        2.9182410199        2.4472845544
 H         -3.4095487765        4.8816891552        0.9447868497
 H         -3.1936121098        4.5337395634       -1.4978447447
 H         -3.0166505779        2.2646803978       -2.4018088227
  72
       -113.91300676
 C         -2.2424418710       -0.0326715503       -3.4920225939
 C         -3.1937178162       -0.0104382179       -2.5497106828
 C         -2.9213946807       -0.0935233965       -1.0747743822
 C         -1.4733415665       -0.2914332158       -0.7472602611
 C         -0.5298677438       -0.2059115316       -1.6965295083
 C         -0.8630906526       -0.1013192909       -3.1228454864
 C          0.2959242788       -0.0637698957       -3.8296626240
 C          1.4047850881       -0.0885953042       -2.8948564285
 C          0.9021941963       -0.1849371874       -1.6080358757
 C          1.7171619494       -0.0998160971       -0.3570480736
 C          3.1667595512        0.0560642915       -0.7061007384
 C          4.2574568162        0.1597571411        0.1144131455
 C          4.3944515720        0.1749089115        1.5270857015
 C          5.6330122660        0.2899607453        2.0675163462
 C          6.7959112814        0.3979936129        1.2482989267
 C          6.7186023417        0.3900618098       -0.1075464465
 C          5.4504999184        0.2696272958       -0.7284825823
 C          5.0711693615        0.2293344355       -2.0497169723
 C          3.6507982240        0.0961572060       -2.0871121766
 C          2.7928863366        0.0251682459       -3.1497531125
 C          1.5568496203       -1.4031098139        0.4054369602
 C          2.0004255854       -2.5555324425       -0.2384351270
 C          1.9204400412       -3.7967029100        0.3595442788
 C          1.3881171020       -3.9126053188        1.6347140406
 C          0.9388823868       -2.7848144330        2.2864820286
 C          1.0185282688       -1.5342749540        1.6763725792
 S          0.3863916457       -0.1917029267        2.6310086679
 C          0.6049141994        1.2065244255        1.5788249419
 C          0.1086567166        2.4081360334        2.0804348740
 C          0.2283039737        3.5731654301        1.3554214714
 C          0.8673745380        3.5469572037        0.1254104972
 C          1.3557726289        2.3541384612       -0.3672845142
 C          1.2247926255        1.1612053968        0.3393961868
 C         -3.7298114672       -1.2153816626       -0.4461415509
 C         -4.2014237058       -2.2579057720       -1.2352687995
 C         -4.8876142031       -3.3242061168       -0.6834794667
 C         -5.1129647290       -3.3706933260        0.6822983788
 C         -4.6471569379       -2.3483322215        1.4839374791
 C         -3.9561290295       -1.2799730767        0.9240546361
 S         -3.3738797187       -0.0381426592        2.0386309178
 C         -3.3434713018        1.3678563195        0.9716948032
 C         -3.4707182366        2.6125989403        1.5770621787
 C         -3.4321104329        3.7622968069        0.8156387819
 C         -3.2806710282        3.6669425718       -0.5577726239
 C         -3.1570999845        2.4269412543       -1.1565625054
 C         -3.1873064041        1.2583007606       -0.4057941363
 H         -2.4980715672        0.0295448287       -4.5408024246
 H         -4.2366729541        0.0897083178       -2.8153609281
 H         -1.2314795169       -0.4343641203        0.2946958666
 H          0.4056332666        0.0029622991       -4.8967427925
 H          3.5164791348        0.0941187089        2.1502762641
 H          5.7627264990        0.3022554144        3.1402997265
 H          7.7553938411        0.4878797929        1.7379058723
 H          7.6048315169        0.4725165740       -0.7206934122
 H          5.7095168003        0.2874068815       -2.9109809705
 H          3.1532606496        0.0726361318       -4.1684742127
 H          2.4221595991       -2.4611784613       -1.2275706788
 H          2.2736913246       -4.6715431881       -0.1645603030
 H          1.3242350336       -4.8755636546        2.1178081974
 H          0.5183526540       -2.8499950672        3.2788018043
 H         -0.3760588885        2.4039567731        3.0450579848
 H         -0.1695538173        4.4960687855        1.7479889860
 H          0.9794592889        4.4534571187       -0.4496018910
 H          1.8504063973        2.3328320539       -1.3264780939
 H         -4.0088872376       -2.2396036792       -2.2971155617
 H         -5.2389451834       -4.1209153256       -1.3210456703
 H         -5.6459938052       -4.1996763221        1.1216709644
 H         -4.8067604668       -2.3645591738        2.5512397634
 H         -3.5896980270        2.6605500152        2.6486755013
 H         -3.5221612321        4.7267656115        1.2911867473
 H         -3.2494170175        4.5584296219       -1.1650600679
 H         -3.0188231734        2.3605137854       -2.2244553076
  72
       -113.91280102
 C         -2.2446845406       -0.1927277170       -3.4889306245
 C         -3.1964865259       -0.1828695840       -2.5463240832
 C         -2.9206211150       -0.1071489293       -1.0717582056
 C         -1.4655611218       -0.2195409023       -0.7373457011
 C         -0.5275887292       -0.1798895001       -1.6938635591
 C         -0.8631827527       -0.1451286007       -3.1224084309
 C          0.2940237517       -0.0663716472       -3.8291569656
 C          1.4033364668       -0.0304337721       -2.8936115168
 C          0.9026903298       -0.1207790536       -1.6064966329
 C          1.7182704400       -0.0878790726       -0.3544160625
 C          3.1655338858        0.0912038491       -0.6986582076
 C          4.2569994194        0.1744574066        0.1227571191
 C          4.3962708530        0.1405065013        1.5349321279
 C          5.6351212335        0.2432720494        2.0770458357
 C          6.7956163043        0.3877225637        1.2599536008
 C          6.7158712480        0.4275845793       -0.0952376571
 C          5.4474364457        0.3210047497       -0.7182225515
 C          5.0656292664        0.3203912344       -2.0393930190
 C          3.6462305777        0.1752335479       -2.0792826122
 C          2.7901634219        0.1102270759       -3.1442223704
 C          1.5496208489       -1.4465551620        0.3073829446
 C          1.9515767584       -2.5534098033       -0.4363199067
 C          1.8259318560       -3.8385648245        0.0501702717
 C          1.2864046947       -4.0470074106        1.3105443637
 C          0.8882946244       -2.9646146403        2.0642180835
 C          1.0180081909       -1.6684691623        1.5682918272
 S          0.4687599347       -0.3912057099        2.6538615025
 C          0.6451461598        1.0760447761        1.6900979611
 C          0.1502854760        2.2370555532        2.2807986369
 C          0.2334243819        3.4462502801        1.6259282911
 C          0.8307455056        3.5048729962        0.3761029762
 C          1.3169813711        2.3515892619       -0.2052823848
 C          1.2254712390        1.1164776132        0.4312365177
 C         -3.6592589913       -1.1953296026       -0.3110581097
 C         -4.1109357648       -2.3310020664       -0.9714270319
 C         -4.7166553495       -3.3673634233       -0.2841181400
 C         -4.8770152245       -3.2886159065        1.0892327459
 C         -4.4309265284       -2.1701918603        1.7640334526
 C         -3.8228134206       -1.1322576051        1.0687395699
 S         -3.2591596920        0.2448724323        2.0244882192
 C         -3.3841371572        1.5315892557        0.8221916673
 C         -3.5997888437        2.8182706092        1.3006881550
 C         -3.7032366902        3.8770355845        0.4220341681
 C         -3.6030750472        3.6458931332       -0.9397679633
 C         -3.3848459390        2.3644566169       -1.4114983538
 C         -3.2709825631        1.2870129027       -0.5421941365
 H         -2.5041262884       -0.2268827026       -4.5381248629
 H         -4.2432027773       -0.1862290659       -2.8160163853
 H         -1.2147116656       -0.2708318367        0.3104587247
 H          0.4026526128       -0.0224247239       -4.8975962284
 H          3.5199041664        0.0330903287        2.1562645065
 H          5.7667721977        0.2182835067        3.1494227749
 H          7.7555615735        0.4649516135        1.7507710008
 H          7.6008542545        0.5354695930       -0.7062374357
 H          5.7022522496        0.4097970390       -2.8992882339
 H          3.1522486279        0.1757667569       -4.1613204082
 H          2.3738752041       -2.3894883022       -1.4159874044
 H          2.1467515782       -4.6761044434       -0.5503175809
 H          1.1798564173       -5.0463710055        1.7038615738
 H          0.4694000900       -3.1014156222        3.0499681482
 H         -0.3060179813        2.1658594056        3.2566362749
 H         -0.1627008900        4.3378336206        2.0871003946
 H          0.9117088131        4.4466362315       -0.1447490279
 H          1.7799093586        2.3947432448       -1.1796516927
 H         -3.9651879721       -2.4107660875       -2.0378728620
 H         -5.0539887663       -4.2400853794       -0.8219067540
 H         -5.3445918409       -4.0946423495        1.6333604021
 H         -4.5402485270       -2.0878922293        2.8345724428
 H         -3.6795825351        2.9715945459        2.3659072711
 H         -3.8661404659        4.8754741683        0.7975444778
 H         -3.6866953700        4.4640584971       -1.6385475762
 H         -3.2868054850        2.1969051750       -2.4725892109
  72
       -113.91280044
 C         -2.2616461257        0.3008226416       -3.1498549950
 C         -3.1661011119        0.2465499084       -2.1658719198
 C         -2.8061346215        0.0544599599       -0.7122583076
 C         -1.3423269187        0.1652114636       -0.4456430635
 C         -0.4475046084        0.2177557098       -1.4441871623
 C         -0.8650302238        0.2310659517       -2.8542231231
 C          0.2463231988        0.1569028154       -3.6292929942
 C          1.4075198808        0.0917324464       -2.7629820664
 C          0.9894372887        0.1610562072       -1.4442839318
 C          1.9090599746        0.1661734122       -0.2632012377
 C          3.3136448850       -0.1098967064       -0.7106080032
 C          4.4470892462       -0.2894436617        0.0352450160
 C          4.6803578775       -0.3006460160        1.4354101178
 C          5.9354905980       -0.5353301856        1.8920585278
 C          7.0223402946       -0.7675191392        0.9973190485
 C          6.8536408776       -0.7590853862       -0.3500480292
 C          5.5638219734       -0.5175285121       -0.8854702524
 C          5.0986342430       -0.4579151498       -2.1780580203
 C          3.6944587898       -0.2076002812       -2.1196489471
 C          2.7670241303       -0.0875708547       -3.1168825049
 C          1.4752701287       -0.9345359202        0.6849041379
 C          1.6236256702       -2.2410145093        0.2261730983
 C          1.2397901457       -3.3255983912        0.9893224614
 C          0.6959740961       -3.1234509049        2.2486306222
 C          0.5423814435       -1.8382646261        2.7221922043
 C          0.9254328371       -0.7475342439        1.9446803779
 S          0.6226544671        0.8366352410        2.6657462863
 C          1.3374887781        1.9610689094        1.5080305857
 C          1.3371676139        3.2973645743        1.9050756844
 C          1.8582543950        4.2733808955        1.0839406452
 C          2.3886085946        3.9152862327       -0.1462727578
 C          2.3895414983        2.5907116496       -0.5326798074
 C          1.8680556381        1.5886648393        0.2827148376
 C         -3.2408964951       -1.3735452297       -0.3712657809
 C         -2.3113554271       -2.4050131608       -0.3034507703
 C         -2.7083564079       -3.7122651102       -0.0887500259
 C         -4.0511265315       -4.0172623436        0.0577936456
 C         -4.9871531842       -3.0038335821        0.0101706097
 C         -4.5835701008       -1.6907810253       -0.1987597535
 S         -5.8487810697       -0.4557915024       -0.2311039379
 C         -4.9270427489        0.9266037252        0.3778086032
 C         -5.6194954563        1.8789757428        1.1146814771
 C         -4.9571563692        2.9839141319        1.6110207355
 C         -3.6023559210        3.1373259023        1.3664007326
 C         -2.9188127033        2.1874324579        0.6296004862
 C         -3.5666134319        1.0642186698        0.1284546082
 H         -2.5706326175        0.4022443825       -4.1805189718
 H         -4.2224669666        0.2969040819       -2.3792908569
 H         -1.0521628798        0.1198895556        0.5931338068
 H          0.2907237973        0.1333855501       -4.7027171672
 H          3.8594256034       -0.1267621615        2.1154050464
 H          6.1369474289       -0.5519874082        2.9536475692
 H          7.9989242599       -0.9515163000        1.4222113735
 H          7.6828720309       -0.9337025904       -1.0207209146
 H          5.6665754475       -0.5862477112       -3.0799351600
 H          3.0470083908       -0.1567328122       -4.1592265557
 H          2.0500359487       -2.3947540965       -0.7538119081
 H          1.3645910086       -4.3262840483        0.6046338492
 H          0.3924445197       -3.9608897385        2.8576483764
 H          0.1195807138       -1.6554572107        3.6988107738
 H          0.9195562270        3.5505821258        2.8682292156
 H          1.8529927331        5.3050074536        1.4006286297
 H          2.8006368433        4.6671453071       -0.8018014975
 H          2.8038913661        2.3148387326       -1.4895261925
 H         -1.2623644637       -2.1905041952       -0.4329120823
 H         -1.9631564841       -4.4916121279       -0.0450348142
 H         -4.3684683760       -5.0366607182        0.2140170740
 H         -6.0387709645       -3.2140754670        0.1311460885
 H         -6.6750758511        1.7393056718        1.2906439520
 H         -5.4969236150        3.7210265445        2.1852181474
 H         -3.0755412773        4.0004167611        1.7435963004
 H         -1.8679437698        2.3272367117        0.4245350364
  72
       -113.91276890
 C         -2.2381202562        0.0371702181       -3.4826031864
 C         -3.1888938651        0.0350435195       -2.5395360468
 C         -2.9169969011       -0.0981202038       -1.0681155056
 C         -1.4663743570       -0.2839800443       -0.7453906133
 C         -0.5238376184       -0.1691958142       -1.6923397528
 C         -0.8585933587       -0.0445506141       -3.1167176745
 C          0.2997296674       -0.0084134714       -3.8248513195
 C          1.4098558854       -0.0516319636       -2.8922852448
 C          0.9083334126       -0.1516445997       -1.6051391534
 C          1.7254885492       -0.0645193101       -0.3553618214
 C          3.1787108938        0.0400693643       -0.7064093590
 C          4.2734136762        0.1054871733        0.1127036832
 C          4.4127718634        0.1082459628        1.5252060638
 C          5.6554372321        0.1758098495        2.0642016053
 C          6.8202026907        0.2461910576        1.2435486154
 C          6.7405976049        0.2505259663       -0.1122385692
 C          5.4680187682        0.1805524402       -0.7316940186
 C          5.0851953189        0.1627800662       -2.0524833645
 C          3.6612583583        0.0751859697       -2.0880691386
 C          2.7993855072        0.0356486221       -3.1493070179
 C          1.5171629370       -1.3362340331        0.4457027740
 C          1.9492870926       -2.5189312415       -0.1489836704
 C          1.8146832524       -3.7389303264        0.4819031469
 C          1.2368281415       -3.8021103962        1.7408668588
 C          0.7996385022       -2.6434258762        2.3449834590
 C          0.9355426992       -1.4145456680        1.7020228063
 S          0.3114070761       -0.0263980912        2.5955484030
 C          0.6146489516        1.3339876552        1.5162175065
 C          0.1513976591        2.5660128184        1.9741365535
 C          0.3413748727        3.7080200060        1.2280648394
 C          1.0180876619        3.6271751414        0.0206625855
 C          1.4711555608        2.4041976016       -0.4301693264
 C          1.2696705392        1.2343176743        0.2982037984
 C         -3.7041931471       -1.2610218109       -0.4880910838
 C         -4.1432431560       -2.2839758019       -1.3204697335
 C         -4.8068133669       -3.3874356554       -0.8161654538
 C         -5.0423068595       -3.4917022203        0.5445918705
 C         -4.6101463699       -2.4888645005        1.3883995853
 C         -3.9412260445       -1.3830326921        0.8762011329
 S         -3.4001225726       -0.1726930505        2.0440278974
 C         -3.3715530948        1.2736980187        1.0328795752
 C         -3.5102563196        2.4924935617        1.6867397499
 C         -3.4703608798        3.6721959696        0.9728116817
 C         -3.3075858847        3.6333593277       -0.4021382974
 C         -3.1735070686        2.4191658376       -1.0493909155
 C         -3.2038392497        1.2210596895       -0.3466167996
 H         -2.4943100804        0.1288869727       -4.5290951299
 H         -4.2320848409        0.1420087810       -2.8016700566
 H         -1.2239600039       -0.4494442056        0.2929629838
 H          0.4083831758        0.0667555277       -4.8915521065
 H          3.5330116325        0.0550669554        2.1490920508
 H          5.7870572669        0.1776376467        3.1368526665
 H          7.7830694988        0.2975004059        1.7320105114
 H          7.6282845440        0.3049274016       -0.7264094618
 H          5.7236802674        0.2044693802       -2.9145954328
 H          3.1587899033        0.0811928381       -4.1684585040
 H          2.4042317308       -2.4653124865       -1.1265145103
 H          2.1601913966       -4.6384456799       -0.0042444078
 H          1.1275546960       -4.7484298782        2.2480372106
 H          0.3441802143       -2.6673003828        3.3236874905
 H         -0.3631991591        2.6043088413        2.9223738046
 H         -0.0307424144        4.6551783474        1.5870290491
 H          1.1863388326        4.5147230712       -0.5700475835
 H          1.9929056925        2.3412113271       -1.3728999052
 H         -3.9431155173       -2.2198646006       -2.3791054223
 H         -5.1322197926       -4.1679295848       -1.4866893822
 H         -5.5577240469       -4.3498948466        0.9472987787
 H         -4.7787593251       -2.5495644510        2.4526825782
 H         -3.6377168469        2.4964243554        2.7584597122
 H         -3.5679814339        4.6161132974        1.4865078597
 H         -3.2741033484        4.5488894673       -0.9722938438
 H         -3.0255492843        2.3957941662       -2.1178688087
  72
       -113.91248654
 C         -2.2352947901        0.0375007764       -3.4865461101
 C         -3.1902906513        0.0345385602       -2.5480637602
 C         -2.9232570516       -0.0168559187       -1.0706940049
 C         -1.4645029372       -0.0482380405       -0.7314160780
 C         -0.5223287924       -0.0210702048       -1.6840865792
 C         -0.8553582742        0.0067781809       -3.1141594584
 C          0.3032753839        0.0022377748       -3.8219940957
 C          1.4130753636       -0.0155723464       -2.8875144530
 C          0.9108486407       -0.0260027129       -1.5975419706
 C          1.7373797268       -0.0026651292       -0.3516082113
 C          3.1931045113       -0.0137209421       -0.7084607588
 C          4.2928233561       -0.0113557299        0.1062843575
 C          4.4376288854       -0.0029873054        1.5182722138
 C          5.6842308968       -0.0024994428        2.0523435909
 C          6.8479655524       -0.0104422960        1.2271356592
 C          6.7635257677       -0.0188349335       -0.1282613773
 C          5.4865705362       -0.0191675720       -0.7427853958
 C          5.0983327963       -0.0245969037       -2.0620238803
 C          3.6714782196       -0.0205525062       -2.0921210682
 C          2.8046296950       -0.0183231924       -3.1497529451
 C          1.4128285664       -1.2690955134        0.4217856071
 C          1.7166133838       -2.4736480233       -0.2074664129
 C          1.4382322047       -3.6899852375        0.3820116156
 C          0.8397390529       -3.7275499436        1.6323042952
 C          0.5364385690       -2.5466502903        2.2740247687
 C          0.8210531046       -1.3212346987        1.6746079815
 S          0.3720217578        0.0988475526        2.6210238281
 C          0.8130109956        1.4506726622        1.5775395399
 C          0.5169487911        2.7130504377        2.0885372110
 C          0.8215303720        3.8489781730        1.3710645501
 C          1.4361668140        3.7288662076        0.1339150193
 C          1.7236980776        2.4764243015       -0.3690027774
 C          1.4150905151        1.3157080934        0.3360184434
 C         -3.5249742460       -1.2812819368       -0.4675252476
 C         -3.8240669074       -2.3697789222       -1.2772278016
 C         -4.2982250838       -3.5533793776       -0.7414970352
 C         -4.4763263722       -3.6730681847        0.6267028957
 C         -4.1854978301       -2.6022083972        1.4472828092
 C         -3.7108447373       -1.4144111480        0.9039705591
 S         -3.3521671049       -0.1058481923        2.0357553207
 C         -3.6264564000        1.2939575733        0.9930707804
 C         -4.0190344502        2.4728219402        1.6153909889
 C         -4.2385876697        3.6118739138        0.8677572074
 C         -4.0741112697        3.5696664600       -0.5068090137
 C         -3.6818691312        2.3945666342       -1.1216108868
 C         -3.4534854788        1.2389489682       -0.3855931251
 H         -2.4893494514        0.0695892786       -4.5371119078
 H         -4.2362681330        0.0654535525       -2.8196697540
 H         -1.2188760845       -0.0864463092        0.3183447044
 H          0.4132145508        0.0145005067       -4.8911246977
 H          3.5587676333        0.0029106757        2.1456133747
 H          5.8199835262        0.0040789041        3.1244612825
 H          7.8140705783       -0.0095733710        1.7118577291
 H          7.6503741402       -0.0248889928       -0.7459914059
 H          5.7347726104       -0.0306855733       -2.9266203503
 H          3.1618361705       -0.0178091170       -4.1706673887
 H          2.1833233255       -2.4415599430       -1.1803509149
 H          1.6849756120       -4.6068376334       -0.1311662517
 H          0.6126037435       -4.6711733012        2.1041807952
 H          0.0715861957       -2.5497780404        3.2485446532
 H          0.0427519242        2.7805957362        3.0562071232
 H          0.5844571636        4.8214671378        1.7744417083
 H          1.6874449995        4.6095369172       -0.4371884139
 H          2.2014515069        2.3821783081       -1.3322571433
 H         -3.6658165187       -2.2911421902       -2.3417805909
 H         -4.5197947291       -4.3838248152       -1.3940942408
 H         -4.8407809993       -4.5949104798        1.0530128653
 H         -4.3165890203       -2.6714551790        2.5162839743
 H         -4.1416770276        2.4810348966        2.6875987594
 H         -4.5374288504        4.5267836281        1.3556294358
 H         -4.2414399157        4.4539206253       -1.1023304515
 H         -3.5322021945        2.3738932618       -2.1901449541
