91
 energy: -136.098601702276 gnorm: 0.000061831268 xtb: 6.7.1 (edcfbbe)
C           -1.35462370613459        5.93183131382913       -1.81931934441761
C           -0.90247218964641        5.14705893153395       -0.58493659435346
C            0.60674836822026        4.89018507801433       -0.70353350292089
C           -1.19147943609186        6.00246400223880        0.65660119922246
C           -1.60955432612780        3.80879622381455       -0.44894506162718
C           -2.52540340834569        3.33816826400825       -1.38341457133262
C           -3.11437767269693        2.09339503069711       -1.25180331182024
C           -2.80688904982240        1.29013488864296       -0.16173614270856
N           -3.32016940862204       -0.01712869426554       -0.05794253104499
C           -2.53067478900954       -1.14708221895451       -0.04284539605125
C           -1.07852537384154       -1.10341588434810       -0.12049127743106
C           -0.33365526602822       -1.94448264586502        0.70529344781846
C            1.04375714525906       -1.87218132036256        0.71931805797260
C            1.70408443321587       -0.96459476086682       -0.10468245909039
N            3.11009932926229       -0.84125475862850       -0.05388310786506
C            3.91718839825420       -1.90551503197901       -0.45957420111391
C            3.36608232909150       -3.06224824512542       -0.98973251703730
C            4.17023604516794       -4.13219926066746       -1.35942932472007
C            5.53548100739902       -4.05141485715230       -1.19661613910830
C            6.10406522649726       -2.88561749057957       -0.70075496276632
C            5.31562296531943       -1.79802556879907       -0.35603507943825
N            5.88318417073218       -0.61047897255196        0.10488964272411
C            7.29172359619052       -0.49877729028762        0.20469853798613
C            8.07108110917047       -0.43633431209010       -0.94510926790949
C            9.44627704461047       -0.33157225112708       -0.84202321018797
C           10.04985728553067       -0.28188381027353        0.40367380776211
C            9.27450635085087       -0.34025933277490        1.55001120115354
C            7.89940233404186       -0.45162016224940        1.45449494311188
C            5.07939199977992        0.46663891699359        0.47227833655014
C            5.63738139062941        1.66906701315850        0.88081493750831
C            4.83638931667747        2.72743214749061        1.28808766569122
C            3.46699421009393        2.58471272874135        1.29363009276281
C            2.89215084756774        1.39900780100452        0.85479825916408
C            3.67858531995539        0.34406531816348        0.41500968931721
C            0.96647376433028       -0.16853976616171       -0.97589381849867
C           -0.41092314484479       -0.23642955707717       -0.98481756008574
N           -3.23636524995471       -2.24338976999173        0.06280605767547
C           -4.53586195189995       -1.84551234857005        0.11124160441143
C           -5.69677812991944       -2.66403484318324        0.18629439122925
C           -5.59907301973686       -4.05928116364419        0.20877345533403
C           -6.73179542741041       -4.83275610166744        0.25090566689217
C           -7.98126279667527       -4.21589047155858        0.26724326020923
C           -8.08876754064019       -2.84495544855741        0.25088054865222
C           -6.95456482018111       -2.01920237938498        0.21667850971614
C           -7.03421658820117       -0.56871528645632        0.23248032481464
C           -8.26220613740495        0.10004725701818        0.33654275482336
C           -8.34376007549807        1.47102788236389        0.39625219216389
C           -7.18566912450042        2.24161125091886        0.37156224889248
C           -5.96301640092296        1.62688421433389        0.26187834010906
C           -5.86036331502316        0.23147615511896        0.17026927235726
C           -4.61940894983180       -0.45487158573548        0.05170944434493
C           -1.91245323054819        1.75405703972063        0.79521937297717
C           -1.32476652848744        2.99324561397472        0.64437499680199
H           -0.82185498795684        6.87956901903350       -1.85960011019120
H           -2.41989872180308        6.14747815689107       -1.77826197036653
H           -1.13451287158701        5.38662325221226       -2.73418212362423
H            0.81807219470158        4.27968520729265       -1.57899611159177
H            0.99169111443523        4.37072537655633        0.16907883314471
H            1.14069987052411        5.83250975326021       -0.80362549279846
H           -2.26294264491117        6.15686081432886        0.76660446745474
H           -0.82015953726210        5.53088360060615        1.56193939451523
H           -0.71167097155199        6.97385192657485        0.55966712906920
H           -2.78702303757837        3.93140288299005       -2.24390547262064
H           -3.80927749904202        1.73651324182998       -1.99854818527106
H           -0.85622379657366       -2.63541796787614        1.34823010532921
H            1.61921789192625       -2.50643350004819        1.37728935063927
H            2.29738681077311       -3.13279090547538       -1.11826108423164
H            3.71471924359143       -5.02186547824844       -1.76581273041818
H            6.17241330272528       -4.88217379559457       -1.45838943621337
H            7.17459238511715       -2.82638812045348       -0.58111379912313
H            7.59169210478097       -0.47324139821839       -1.91232328450590
H           10.04837121881822       -0.28365834641781       -1.73730306349734
H           11.12344122139111       -0.19768141952484        0.48103183697850
H            9.74271503808374       -0.30421551544968        2.52253583984141
H            7.28675443654853       -0.49991649800525        2.34275423012003
H            6.71009338258069        1.78332055482781        0.88437091719786
H            5.29654694404725        3.65039899255154        1.60542176718624
H            2.83352203165270        3.38966142300355        1.63389995570515
H            1.81789961215018        1.29839716496649        0.85932771864770
H            1.48302856620288        0.50908487183858       -1.63951048323842
H           -0.96603800252702        0.37604090374320       -1.67865522535915
H           -4.61256516837049       -4.49556994294256        0.18551472307219
H           -6.66138079535707       -5.91040783082071        0.26681343931842
H           -8.87638124378923       -4.82069144205931        0.29327709725631
H           -9.07698610100724       -2.41306065688456        0.26197583661486
H           -9.17879399501093       -0.46566776906428        0.38103204444467
H           -9.30851628020987        1.95024330146490        0.47587872201107
H           -7.24699701891792        3.31762396526826        0.44254073042939
H           -5.06568613686464        2.22555190234083        0.26198015557604
H           -1.67346465247023        1.13360745538479        1.64650881017602
H           -0.62505465343413        3.32099655755774        1.39748579960077
