91
 energy: -136.098594738594 gnorm: 0.000056695714 xtb: 6.7.1 (edcfbbe)
C           -1.94020305970463        5.44382978604843       -1.64696184065410
C           -1.43043191604879        4.69143763333539       -0.41492339283893
C            0.09849377356822        4.58959764460031       -0.51243595572147
C           -1.82223733489066        5.49541078611963        0.83284671268107
C           -2.00375146400040        3.28831445137868       -0.30523056321913
C           -2.88015193551084        2.75317816043660       -1.24280172089776
C           -3.35055154744156        1.45702485573529       -1.13204674729853
C           -2.95992405320267        0.66434524801629       -0.06099023578790
N           -3.35546952501506       -0.68453933598242        0.02283615072715
C           -2.47203914140471       -1.74241924360094        0.00892219850658
C           -1.03003020768812       -1.57461800282210       -0.08558996489378
C           -0.20542410292690       -2.36434194284844        0.71477478193115
C            1.16169388411336       -2.18220653306690        0.70661274583287
C            1.73356139033011       -1.21542912782223       -0.11671112904020
N            3.12682601758483       -0.98865492603986       -0.09395797944188
C            4.00136381791319       -1.99556812157868       -0.50805653788503
C            3.52620835314072       -3.18955296290172       -1.02940151506804
C            4.39811475804159       -4.20330487440967       -1.40361977539517
C            5.75617717532018       -4.02862142639961       -1.25473604363274
C            6.24810225153226       -2.82361286304348       -0.77119234289252
C            5.39018096085845       -1.79087411607130       -0.42328714463296
N            5.87985352221328       -0.56361518704996        0.02199983196263
C            7.27840138460140       -0.35291618787975        0.10000770641932
C            8.03561312622988       -0.24953552508503       -1.06161180578763
C            9.40157701844311       -0.04914884337612       -0.97968970050336
C           10.01746434666903        0.05575071134367        0.25653290850698
C            9.26385650780051       -0.04285919022162        1.41456290791303
C            7.89851212600904       -0.24970824531554        1.34028859970620
C            5.00785999416997        0.45952005160591        0.38773555923717
C            5.48709693896122        1.70325751905866        0.77210366150722
C            4.62105696409161        2.70820540964577        1.18105988900634
C            3.26551772045414        2.46918652959354        1.21441699148485
C            2.76799622374470        1.24069191352300        0.79965573202349
C            3.61831404474852        0.23854367208711        0.35512434373614
C            0.91825165475120       -0.46729402999270       -0.96107287249964
C           -0.44957319091381       -0.64299085631773       -0.94543404013917
N           -3.08001344611648       -2.89711287294306        0.10015635300932
C           -4.40822777065083       -2.61330260409875        0.16832485596328
C           -5.49427203260286       -3.52954153960595        0.23489104863949
C           -5.27785096375076       -4.91150340279389        0.22547684763397
C           -6.34021283404424       -5.77959581814435        0.25612986913443
C           -7.63758928038838       -5.27219575962147        0.29237971570861
C           -7.86164943698305       -3.91542422268746        0.30834254499864
C           -6.80219014596769       -2.99535906895009        0.28784933950510
C           -7.00505238199342       -1.55774907899754        0.33888994879943
C           -8.28406294989871       -0.99908142689280        0.47308368326481
C           -8.48136251169217        0.35817530290958        0.56666670665626
C           -7.39360281164223        1.22533103470067        0.54702711211591
C           -6.12456330251742        0.72011242334389        0.40889111913994
C           -5.90454269062041       -0.65896410979815        0.28307736324306
C           -4.61115215484146       -1.23412885609244        0.13683147005684
C           -2.10213264229253        1.18945145685300        0.89775336926118
C           -1.63430627564403        2.48108157224220        0.76876893932949
H           -1.49644058179725        6.43685094181864       -1.67262160070601
H           -3.02107406466741        5.56087427944534       -1.61614976089311
H           -1.66148355255240        4.92980443242427       -2.56393150716650
H            0.38358788207354        4.00705941678304       -1.38600733242500
H            0.52157170228976        4.10934252727532        0.36487611893634
H            0.53519503546954        5.58172915811422       -0.60224064278850
H           -2.90538637809864        5.54726447010557        0.92281085595540
H           -1.42628367913134        5.04426197677248        1.73826958802754
H           -1.43366200108393        6.50883451134114        0.76063428915167
H           -3.20383760975993        3.33668463399814       -2.08870597976820
H           -4.01785174084317        1.05256899318554       -1.87970247451337
H           -0.65915300220543       -3.10451098229204        1.35517758166370
H            1.79731466539155       -2.77758322507049        1.34527526149556
H            2.46384528104515       -3.33439535264176       -1.14730249318748
H            4.00059059712680       -5.12385427191470       -1.80198502096297
H            6.44596130067355       -4.81530208247780       -1.51870058160337
H            7.31318460431044       -2.68991396737288       -0.66373256498315
H            7.54649186640313       -0.33011604510877       -2.02127675172741
H            9.98644011952872        0.03003870804804       -1.88412661937537
H           11.08369523750811        0.21417129663382        0.31744392430454
H            9.74189083128808        0.03629381306207        2.37972429499540
H            7.30304966846929       -0.32993789146344        2.23787246126786
H            6.54913875576511        1.89188419487118        0.75527426052576
H            5.02047512256990        3.66550499710134        1.47830169634196
H            2.58275168070842        3.23177635587681        1.55652581902860
H            1.70378370472701        1.06535209398474        0.82704498598803
H            1.36670152437001        0.25686002556867       -1.62508909591096
H           -1.06458799715884       -0.06559424061810       -1.61861825537065
H           -4.25796955005043       -5.26138235340505        0.18657476097070
H           -6.17810007249427       -6.84739177888665        0.24714265618330
H           -8.47771252105562       -5.95163635813701        0.30822003064769
H           -8.88296672923308       -3.56968852786792        0.33338190637269
H           -9.14830272451460       -1.64209058678744        0.51534129889509
H           -9.48224066127325        0.75117527490851        0.66930375615209
H           -7.54540289806375        2.29024053358936        0.64467264338798
H           -5.28164453578670        1.39320025195472        0.41359696816118
H           -1.79839216916045        0.57689574567142        1.73397035480114
H           -0.96269895564433        2.85805317152017        1.52448446869745
