91
 energy: -136.019394081088 gnorm: 0.000089082065 xtb: 6.7.1 (edcfbbe)
C           -2.01960972072622        6.26523723931058       -2.13951254416165
C           -1.57280782086015        5.64769860035355       -0.81168497507256
C           -0.03797335727816        5.66681527894412       -0.76729467166996
C           -2.13726476640405        6.50730185735325        0.32836715088385
C           -2.05251307540477        4.21562911045376       -0.63956878094392
C           -2.80670534583901        3.54727866479620       -1.59945931543821
C           -3.21400491240782        2.23967114005760       -1.41473761831147
C           -2.87841852172763        1.55723486514543       -0.24816934029422
N           -3.24885947369676        0.22183447715652       -0.05898979625050
C           -2.34429390597935       -0.83718713359846        0.18118597579056
C           -0.94814704634669       -0.80131316432291        0.09216071855660
C           -0.22380276169624       -1.91545929140695        0.62262344539543
C            1.13520266929991       -1.95505969316676        0.60997391992296
C            1.87765616880965       -0.88495616130646        0.06329695731464
N            3.28408406380387       -0.90411584548813        0.08117782562284
C            3.97145238408779       -1.94384835168487       -0.52963308606353
C            3.29937395362536       -2.92558962039921       -1.25687842743644
C            3.98481486790877       -3.98470434747449       -1.82223304039411
C            5.35741029259685       -4.08126674169701       -1.67473837617662
C            6.05013868399878       -3.08718905315865       -1.00519168088313
C            5.37891988467137       -2.00082980948661       -0.45397995489308
N            6.07240492144503       -0.97116010189802        0.16152487653485
C            7.49262703926853       -1.00906879448646        0.21223255353138
C            8.23537923355619       -0.73713745012918       -0.93076947459611
C            9.61681388494793       -0.77585982654831       -0.87607104674760
C           10.25866314877134       -1.08116506270050        0.31360058877058
C            9.51644149839869       -1.35048463269138        1.45254559791644
C            8.13457473927956       -1.31706093541961        1.40589197298354
C            5.39510504278337        0.10077738370795        0.71960304116291
C            6.08721677836842        1.16109680678625        1.29562211973994
C            5.40841434276149        2.20102728408241        1.90702490385679
C            4.02640009444855        2.17792807211865        1.96951787281564
C            3.32227727590129        1.14429472647034        1.38007147946538
C            3.98436047007991        0.11475409680621        0.71217886209806
C            1.18347055526331        0.19203854145697       -0.51909603354192
C           -0.17947533856898        0.23412474155054       -0.52139713408180
N           -3.01590073816160       -1.97422722423677        0.45398762872126
C           -4.30652314927830       -1.69015020039937        0.34795141446944
C           -5.40557018718023       -2.58945093063686        0.48683607664222
C           -5.18870549250854       -3.94775774807639        0.72446606343695
C           -6.25113326804066       -4.81841175315300        0.81963568148137
C           -7.54353036581149       -4.32913016362063        0.66770012756969
C           -7.76877211625132       -2.98823460035492        0.43849112324036
C           -6.71347741943887       -2.06922780698640        0.34938625282687
C           -6.91754371119404       -0.64613605460286        0.14878676339811
C           -8.19832420952690       -0.09067270067318        0.10579870489792
C           -8.41178029182708        1.26314299247681       -0.03795550842760
C           -7.32360172697223        2.13299257611616       -0.12361323652531
C           -6.04943414507308        1.63523807212842       -0.09538025452076
C           -5.80132695364637        0.24814548711563        0.01678192076786
C           -4.51351093098658       -0.31360739389673        0.04772348242035
C           -2.12677912398326        2.21552883669951        0.72458370715970
C           -1.72620872033202        3.51892163420674        0.52365494285647
H           -1.65122323237043        7.28711052042317       -2.20580171468111
H           -3.10431275368034        6.29460515918327       -2.21216659870206
H           -1.61986678023511        5.70952073006962       -2.98465821057318
H            0.36863901909969        5.04355887737499       -1.56128197215620
H            0.33602558081009        5.29393818222937        0.18221870852426
H            0.32866845858877        6.68218002101508       -0.90332004054865
H           -3.22490097450483        6.47961443629916        0.31651385735507
H           -1.79868154756622        6.15318537037839        1.29802399996078
H           -1.81704295911120        7.54071342422828        0.21258852425806
H           -3.08402967918790        4.03652145579294       -2.51876818071450
H           -3.79039406904783        1.73532926404531       -2.17704290416426
H           -0.80114852891861       -2.71218707956298        1.06185145534496
H            1.66647033171687       -2.78640260642308        1.05132369290241
H            2.23163817669028       -2.85067595035566       -1.38198214219227
H            3.44097730893211       -4.73391159885722       -2.37567652852972
H            5.89682122887088       -4.91635535820997       -2.09329363112417
H            7.12286241691748       -3.15024943669958       -0.91125834962571
H            7.72453612762972       -0.49967540505077       -1.85216876564615
H           10.19362498965256       -0.56430929607053       -1.76375907226582
H           11.33688247204441       -1.10918015759951        0.35313679862299
H           10.01496378895294       -1.58997906250823        2.37965277267377
H            7.54595020363041       -1.52525426217669        2.28704218937463
H            7.16548595509431        1.16711540587253        1.26721484002859
H            5.96435632074511        3.01431159144992        2.34641131679381
H            3.48993453376863        2.96465212903166        2.47633871641094
H            2.24653706997362        1.12711983547999        1.44056287685219
H            1.75060828510996        0.97244940648320       -1.00768477353404
H           -0.67527845367119        1.03413577863510       -1.04492074903487
H           -4.16856969606884       -4.28519763219810        0.82276675526377
H           -6.08600342091050       -5.86974459758610        1.00368248445596
H           -8.38429204055114       -5.00567288063147        0.72998863924639
H           -8.78954463685611       -2.65908140536791        0.32405988778222
H           -9.06224676659395       -0.72969803881176        0.19831504338501
H           -9.41898486578551        1.65163752952588       -0.06768100880669
H           -7.48776874862378        3.19770205657681       -0.20637292706482
H           -5.21509939651483        2.31601912274039       -0.13813521458025
H           -1.86048482589895        1.69147830631198        1.63066431393953
H           -1.14701458439398        3.99987168740445        1.29735862201036
