91
 energy: -136.019392771019 gnorm: 0.000065010451 xtb: 6.7.1 (edcfbbe)
C           -2.55730275454773        6.19874589762466       -1.88090615564033
C           -2.07274158353171        5.56827815178933       -0.57252634730967
C           -0.54492441507903        5.70957445839341       -0.51057837615792
C           -2.71410353818657        6.33447674347638        0.59314897751512
C           -2.43646623939335        4.09665736935674       -0.46025834500613
C           -3.13149927029132        3.40913184780268       -1.45075381838517
C           -3.43304105987149        2.06677882086526       -1.32066508198385
C           -3.04696430302504        1.36715461924910       -0.18020949740906
N           -3.31081591981624       -0.00003883112574       -0.04713745678729
C           -2.32702280182860       -0.99655482521595        0.14413843825360
C           -0.93776266452770       -0.85167211776244        0.05838780094361
C           -0.13135887484093       -1.93696591785342        0.52722046125662
C            1.22690097617858       -1.87880846914481        0.50675917837425
C            1.88702909077141       -0.73111995199503        0.01487277153743
N            3.29158889255413       -0.65154994805768        0.02119985726124
C            4.04409155506139       -1.60117299363643       -0.65592660633930
C            3.43503467927912       -2.59059031226083       -1.42688296003966
C            4.18814676779337       -3.56143653764780       -2.06054656405878
C            5.56657856883826       -3.56018999558439       -1.93851059310848
C            6.19415136110117       -2.55410891256100       -1.22425034039544
C            5.45300234723647       -1.55391318277114       -0.60374846655556
N            6.07830979611117       -0.50933988282835        0.05832953421138
C            7.49779606061296       -0.43703363980031        0.07802028755105
C            8.18854459252124       -0.05484962359070       -1.06610256991389
C            9.56972991979264        0.01258128863125       -1.04297577930684
C           10.26297277181660       -0.29584611337984        0.11668000501907
C            9.57257812936858       -0.67482818743697        1.25696595222274
C            8.19154655863803       -0.74835901434020        1.24149894185360
C            5.33230941554815        0.47181638445397        0.69107180323981
C            5.95190374546066        1.54633699370706        1.32078547826046
C            5.20721056216153        2.49205984893415        2.00426301653098
C            3.83232763473775        2.35872198666898        2.08454406057498
C            3.19833408380961        1.31128670577225        1.44240740507711
C            3.92465721207688        0.37766620742390        0.70398982518524
C            1.11321704567767        0.32478540009661       -0.50220086730521
C           -0.24926077634480        0.26917576111155       -0.49763666345646
N           -2.90936837339405       -2.19347121127448        0.36140794324224
C           -4.21807335443369       -2.00469035766479        0.26610582312719
C           -5.24481458979227       -2.99100465964570        0.36090010204486
C           -4.92424464064287       -4.33796638943518        0.53807900991263
C           -5.91668585825930       -5.29088934847196        0.59145213318519
C           -7.24290594294180       -4.89579943020414        0.45789355951216
C           -7.57048158602961       -3.56724096403177        0.28806797077271
C           -6.58887234302182       -2.56691248420066        0.24314663814410
C           -6.90174330721546       -1.15613466722500        0.10600924720813
C           -8.22145191251268       -0.69940917616243        0.08150357168471
C           -8.53834027410147        0.63911305097547       -0.00176211932453
C           -7.52028376365278        1.59312941042705       -0.04185283368869
C           -6.21160460721024        1.19408469480361       -0.02975638183673
C           -5.85756235202776       -0.17353560722723        0.02010258335282
C           -4.53043298026302       -0.63562097141682        0.03009588180314
C           -2.35458390787136        2.04406357845867        0.82316657844226
C           -2.05975214828064        3.38252918744230        0.67690233951587
H           -2.26968006134097        7.24802358155733       -1.90560646921791
H           -3.64042726995877        6.14613731857632       -1.96330703440257
H           -2.10924593365384        5.70813387123947       -2.74198469653253
H           -0.08285142492150        5.15199377949722       -1.32285099489184
H           -0.14926566563810        5.33230090627206        0.42833919946998
H           -0.26084815303833        6.75569172571506       -0.60450173920354
H           -3.79575513151479        6.21924730945106        0.56839135148297
H           -2.35534658690615        5.97135682081860        1.55217989923148
H           -2.47813857591934        7.39414287174236        0.52033309162655
H           -3.44450906484036        3.91110148377279       -2.35154014248859
H           -3.96529170235459        1.54886792996969       -2.10560552317182
H           -0.64700117704246       -2.79520324949616        0.92539402014993
H            1.81937629065286       -2.69244258061828        0.90065875013898
H            2.36256504282819       -2.59134561315880       -1.53214245928738
H            3.69244734648278       -4.31880184609153       -2.64709739896563
H            6.15999161866767       -4.32715308452646       -2.41090140828386
H            7.27010497643451       -2.54012534316836       -1.14915785952116
H            7.63797164558468        0.18390332942038       -1.96399428388600
H           10.10592239557674        0.30943222849747       -1.93170531604071
H           11.34077875940153       -0.24089676204005        0.13172140712787
H           10.11122424556716       -0.91684721079055        2.16068577307583
H            7.64329182536901       -1.04305123101883        2.12401567332539
H            7.02575549691312        1.63809792447578        1.27725698766979
H            5.70763067778318        3.31801756007571        2.48481866203041
H            3.24699205492213        3.06983461187491        2.64605002538126
H            2.12823137490385        1.20755009580760        1.51561461664630
H            1.61957579983245        1.17041425545003       -0.94710259738643
H           -0.80436589774100        1.06041335127790       -0.97260119160497
H           -3.88116168704406       -4.60025440950265        0.62403075248395
H           -5.67130150027947       -6.33361476210118        0.72910861981540
H           -8.02927653328814       -5.63687735630981        0.48781166963141
H           -8.61359155521197       -3.31254996433637        0.18577630131574
H           -9.03375276386815       -1.40652469173243        0.14005397031604
H           -9.57243963100024        0.94993149213650       -0.01932001743029
H           -7.76591137249789        2.64471862641749       -0.07686529991665
H           -5.43213367580956        1.93825921798801       -0.03726881364887
H           -2.04999994903992        1.50702536290338        1.70936173323437
H           -1.52444828955029        3.87725572367866        1.47319122144049
