  60
        -93.70034328
 C          7.7491231015        1.1142483488       -1.0049323552
 O          7.0392657724        0.2087359882       -0.1949067229
 C          5.6764871193        0.2526699357       -0.2128176332
 C          4.9129879212        1.1240623229       -0.9786673346
 C          3.5328190148        1.0594614214       -0.9031189147
 C          2.8766949936        0.1385158407       -0.0951988526
 C          1.4173987211        0.0723441971       -0.0536871799
 C          0.6664653104        1.2078960760        0.3743953692
 C          1.2914282942        2.3774597832        0.8176023436
 C          0.5560950169        3.4601945583        1.2960861017
 C         -0.8156581707        3.3714535044        1.3854990751
 C         -1.4617406465        2.2033511706        0.9852692564
 C         -0.7557046766        1.1252602042        0.4464098718
 C         -1.4189622858       -0.0786319875        0.0598285954
 C         -2.8782893265       -0.1416500164        0.0949495726
 C         -3.5409380152       -1.0671644184        0.8925061191
 C         -4.9215678699       -1.1289345617        0.9605836237
 C         -5.6791237135       -0.2503113201        0.1970963386
 O         -7.0416744352       -0.2039037330        0.1714912795
 C         -7.7579425991       -1.1150345107        0.9695875970
 C         -5.0384654478        0.6752651630       -0.6303229631
 C         -3.6587247364        0.7389515305       -0.6905972828
 O         -2.9672508407        1.5785151801       -1.5051471633
 C         -3.6810350334        2.4816513619       -2.3112110704
 C         -0.6678588088       -1.2144215706       -0.3678374959
 C         -1.2926008899       -2.3827428853       -0.8144183936
 C         -0.5568949170       -3.4672472067       -1.2883407940
 C          0.8155506587       -3.3817990685       -1.3691472071
 C          1.4615561127       -2.2138503896       -0.9684013593
 C          0.7546706761       -1.1330418492       -0.4360614596
 C          3.6630185274       -0.7333389995        0.6939433262
 O          2.9774927612       -1.5670425552        1.5194950778
 C          3.6979746374       -2.4532405888        2.3388056460
 C          5.0423250189       -0.6673831722        0.6256383515
 H          8.8026409255        0.9010784510       -0.8317703597
 H          7.5200997562        0.9693068075       -2.0655090749
 H          7.5391781619        2.1518636669       -0.7265049908
 H          5.3716588499        1.8439888606       -1.6365367661
 H          2.9386504838        1.7221180206       -1.5143454805
 H          2.3681570186        2.4406217805        0.8039877105
 H          1.0705440105        4.3562148308        1.6122116670
 H         -1.3948389311        4.1958204210        1.7757908203
 H         -2.5305729199        2.1275690359        1.1104538157
 H         -2.9516271297       -1.7352457714        1.5024877892
 H         -5.3853217402       -1.8524195451        1.6109984356
 H         -7.5447220433       -2.1508354747        0.6867023206
 H         -7.5384268563       -0.9761096666        2.0331032245
 H         -8.8100782149       -0.9015946179        0.7883992199
 H         -5.6659277031        1.3254080121       -1.2168989665
 H         -4.3243926608        1.9609827274       -3.0280419944
 H         -4.2875877988        3.1664331280       -1.7097354108
 H         -2.9257436521        3.0504396143       -2.8510392542
 H         -2.3694878224       -2.4436762971       -0.8072602870
 H         -1.0714607203       -4.3624768042       -1.6064732564
 H          1.3952151081       -4.2078267602       -1.7550657905
 H          2.5311640043       -2.1404959694       -1.0879430271
 H          2.9470667794       -3.0134126707        2.8935340886
 H          4.3438949881       -1.9173029097        3.0420543567
 H          4.3032415390       -3.1478800445        1.7471510895
 H          5.6743652402       -1.3114781772        1.2140190733
