  66
       -109.47085778
 C         -6.9915656097       -1.8485385839       -2.3167646458
 C         -8.2234542698       -1.2220896092       -2.2321733911
 C         -8.3924578517       -0.1501940400       -1.3707606114
 C         -7.3366713847        0.2850258400       -0.5886084782
 C         -6.0878073751       -0.3575650980       -0.6516390614
 C         -5.9313746365       -1.4209307818       -1.5386692226
 N         -5.0489186030        0.0934792814        0.1461059552
 C         -5.2640706669        1.1721001465        0.9874452167
 C         -4.2733886441        1.6519059765        1.8419575784
 C         -4.5202548552        2.7331342541        2.6680448193
 C         -5.7583679743        3.3526417925        2.6633417219
 C         -6.7620659088        2.8777753002        1.8345605623
 C         -6.5242746129        1.7951434422        1.0055280165
 O         -7.5612643012        1.3602916626        0.2271211472
 C         -3.7807175015       -0.5425191786        0.1030630314
 C         -2.6888474254        0.1197021360       -0.4623707464
 C         -1.4554879579       -0.4849443059       -0.5023702930
 C         -1.2652528443       -1.7705581433        0.0381907807
 C         -2.3934188702       -2.4448609015        0.5523342342
 C         -3.6223563880       -1.8403087586        0.5985187981
 C         -0.0040329891       -2.4888786250       -0.0069000816
 O         -0.0046659340       -3.7502760663        0.0097316420
 C          1.2558788407       -1.7713450779       -0.0649751527
 C          1.4386782299       -0.4637116524        0.4235862394
 C          2.6746213585        0.1353833234        0.3858689912
 C          3.7772792420       -0.5534903329       -0.1241941032
 C          3.6250008098       -1.8696045745       -0.5710610859
 C          2.3930825421       -2.4678154652       -0.5288512708
 N          5.0501462995        0.0740508029       -0.1549000407
 C          6.0580550255       -0.3431722322        0.6989438691
 C          5.8671727178       -1.3685341949        1.6231945598
 C          6.8970652579       -1.7630893600        2.4573936839
 C          8.1320585559       -1.1404197935        2.3926803047
 C          8.3347022205       -0.1057710429        1.4937854770
 C          7.3095393357        0.2959901722        0.6550430939
 O          7.5659599458        1.3355482501       -0.1967599024
 C          6.5600128844        1.7354361161       -1.0326041158
 C          6.8308253512        2.7799004441       -1.8995830539
 C          5.8596524159        3.2174961571       -2.7856294441
 C          4.6210106817        2.5992917098       -2.8086016074
 C          4.3410903110        1.5563581093       -1.9447625061
 C          5.2987143211        1.1143528808       -1.0339889616
 H         -6.8490457811       -2.6759038885       -2.9942200811
 H         -9.0505310283       -1.5574762277       -2.8374603663
 H         -9.3353204524        0.3667949421       -1.2920407133
 H         -4.9710208606       -1.9050330883       -1.6148224521
 H         -3.3117215036        1.1644407371        1.8552272129
 H         -3.7382389599        3.0889835990        3.3206475629
 H         -5.9501494924        4.1971703039        3.3059231378
 H         -7.7405156248        3.3303204118        1.8183247279
 H         -2.8310335830        1.1047225186       -0.8853783994
 H         -0.6374547813        0.0180333594       -0.9951044954
 H         -2.2520471051       -3.4478377991        0.9246811729
 H         -4.4753193344       -2.3523936007        1.0207391297
 H          0.6121473732        0.0625437424        0.8760919602
 H          2.8107856326        1.1370593112        0.7699847751
 H          4.4854734163       -2.4009860861       -0.9522253964
 H          2.2558059471       -3.4847113212       -0.8631712038
 H          4.9038184429       -1.8488580980        1.6838247268
 H          6.7281002980       -2.5612465360        3.1631925837
 H          8.9354781825       -1.4499185915        3.0420084275
 H          9.2807491596        0.4072934602        1.4287643983
 H          7.8087663580        3.2326031229       -1.8667057474
 H          6.0768198174        4.0323965449       -3.4576609644
 H          3.8645498793        2.9265615314       -3.5048089245
 H          3.3793840987        1.0694380229       -1.9711334599
