  66
       -109.54554523
 C         -7.1883978254       -2.2583872454       -1.6516115940
 C         -8.3929857718       -1.5941012433       -1.5403875992
 C         -8.4369391909       -0.3619307098       -0.9056825282
 C         -7.2876173271        0.1882581051       -0.3688712764
 C         -6.0673585582       -0.4959712874       -0.4417162445
 C         -6.0335548047       -1.7118407499       -1.1131084204
 N         -4.9204194662        0.0854362745        0.1099556033
 C         -5.0219084422        1.3528178660        0.6923424755
 C         -3.9422419841        1.9837594219        1.2976640085
 C         -4.0802838813        3.2393822468        1.8696872772
 C         -5.3016293975        3.8813367384        1.8579136542
 C         -6.3977154422        3.2510426054        1.2884327110
 C         -6.2658030906        1.9980894156        0.7188807782
 O         -7.4047144756        1.4265227122        0.2110197064
 C         -3.6935526870       -0.6030446863        0.0932989010
 C         -2.5925324527       -0.0625165182       -0.5693144692
 C         -1.3857690903       -0.7315466774       -0.5751926043
 C         -1.2589426645       -1.9609722680        0.0704595801
 C         -2.3718262462       -2.5119245901        0.7057774392
 C         -3.5732709478       -1.8373123042        0.7309299644
 C          0.0042560573       -2.7378295986        0.0489223626
 O          0.0024317856       -3.9540639524        0.0553959705
 C          1.2693782886       -1.9646761229        0.0139380952
 C          1.4083040609       -0.7390905887        0.6642917123
 C          2.6141064315       -0.0690381109        0.6374086789
 C          3.7010139596       -0.6028444603       -0.0538099052
 C          3.5692391820       -1.8346581616       -0.6939374545
 C          2.3698479052       -2.5119282380       -0.6453506952
 N          4.9218192364        0.0944631214       -0.1004146743
 C          6.0931376507       -0.4852588534        0.3996838962
 C          6.0954383426       -1.7130820871        1.0498301191
 C          7.2745141330       -2.2583437982        1.5346250907
 C          8.4683953042       -1.5814115398        1.3898511601
 C          8.4772799620       -0.3370488271        0.7781187548
 C          7.3035296350        0.2124851295        0.2961840812
 O          7.3878304904        1.4641343510       -0.2601690691
 C          6.2291749193        2.0268711152       -0.7315166705
 C          6.3312806074        3.2864558861       -1.2926876338
 C          5.2131828421        3.9091166208       -1.8264670022
 C          3.9999174590        3.2521097541       -1.8130769421
 C          3.8919726262        1.9897406612       -1.2495941379
 C          4.9939809543        1.3670064472       -0.6767234351
 H         -7.1326480247       -3.2073930909       -2.1620670915
 H         -9.2950755596       -2.0174148339       -1.9527515099
 H         -9.3565679483        0.1945670597       -0.8202245418
 H         -5.0966232301       -2.2345812695       -1.2242170755
 H         -2.9850256723        1.4876673479        1.3318424084
 H         -3.2213813127        3.7073589015        2.3257807167
 H         -5.4136229823        4.8599616210        2.2969333447
 H         -7.3721244741        3.7127439956        1.2833224805
 H         -2.6964744006        0.8797072173       -1.0869871958
 H         -0.5466175919       -0.3152959533       -1.1128307197
 H         -2.2672178855       -3.4706474580        1.1910718172
 H         -4.4269969385       -2.2555663756        1.2431688564
 H          0.5796175552       -0.3270327859        1.2211487750
 H          2.7280891302        0.8700853950        1.1586440092
 H          4.4111566583       -2.2481063916       -1.2290462327
 H          2.2567650460       -3.4684558483       -1.1330871131
 H          5.1680098574       -2.2462237161        1.1875330983
 H          7.2465025866       -3.2174598051        2.0282013837
 H          9.3893760240       -2.0044961764        1.7584103329
 H          9.3877475080        0.2304131499        0.6699223565
 H          7.2995807987        3.7607081071       -1.3065716919
 H          5.3020216939        4.8928139538       -2.2594658708
 H          3.1245672921        3.7120520623       -2.2453197603
 H          2.9407592703        1.4816094394       -1.2663617382
