66
 energy: -109.545549550999 gnorm: 0.000069339357 xtb: 6.7.1 (edcfbbe)
C           -7.20938011735935       -2.17425799004039       -1.78572311429665
C           -8.39354790891403       -1.47375887875242       -1.67798213916901
C           -8.41169558989874       -0.26262702582897       -1.00255996798990
C           -7.25718269466881        0.23150383578181       -0.42436447188184
C           -6.05803007770866       -0.48930678824274       -0.49737284306661
C           -6.04915311280986       -1.68415511736398       -1.20580601418308
N           -4.90510364801441        0.03769191173742        0.09325031970427
C           -4.98205045439988        1.27846003012129        0.73286487157594
C           -3.89775328059854        1.84361153389167        1.39229391017047
C           -4.01068515962722        3.07322263537901        2.02328015978238
C           -5.21129495833218        3.75327001352248        2.01637635621222
C           -6.31235344719314        3.18793541802992        1.39064706196985
C           -6.20553930630524        1.96117818154601        0.76195198386135
O           -7.34709620119090        1.45253166534170        0.19625632371725
C           -3.68954399237857       -0.67053482385885        0.05259247944308
C           -2.58339811605829       -0.12315984254080       -0.59527760419708
C           -1.38231645941301       -0.80158655352241       -0.61638099719053
C           -1.26454130461505       -2.04382433466378        0.00654868058441
C           -2.38488355520130       -2.60371129419496        0.62060485409141
C           -3.58316124546591       -1.92323190314378        0.65476783997956
C           -0.00000188321991       -2.81919990806237       -0.00261037892243
O            0.00002314126248       -4.03546809993601       -0.00373677567301
C            1.26452733893184       -2.04379042656061       -0.01033636225317
C            1.38229878996898       -0.80271174105235        0.61489587209804
C            2.58338590908719       -0.12425467115786        0.59506431068145
C            3.68953739615582       -0.67044394823898       -0.05379145176071
C            3.58316264757537       -1.92202448847561       -0.65828089795976
C            2.38487581328679       -2.60255124737423       -0.62540688144610
N            4.90510186356881        0.03785700440348       -0.09312815236119
C            6.05798828470596       -0.49016866415980        0.49664640832377
C            6.04905873072190       -1.68624585807240        1.20300074276722
C            7.20924245289260       -2.17734619251682        1.78216114902988
C            8.39341343308674       -1.47665242053212        1.67573062669950
C            8.41161432442345       -0.26435932381511        1.00239422852533
C            7.25714712186623        0.23076427346094        0.42495880058496
O            7.34710706040189        1.45284927842163       -0.19357421375613
C            6.20559477807982        1.96245365972905       -0.75850080865510
C            6.31246054464229        3.19025743865932       -1.38513938267262
C            5.21144136988186        3.75665516429498       -2.00997798450249
C            4.01081576309500        3.07664924566511       -2.01806695856740
C            3.89783263976846        1.84598363434874       -1.38914862962542
C            4.98209535793965        1.27970397540601       -0.73063293620293
H           -7.17377385890778       -3.10769289653333       -2.32583064715355
H           -9.29963103477103       -1.85270818291100       -2.12348064290340
H           -9.31461212927433        0.32053011315411       -0.91729447226241
H           -5.12720275912169       -2.23347566563549       -1.31429960550948
H           -2.95793209785105        1.31503112713294        1.42273950619891
H           -3.14981258197917        3.48934928460464        2.52361766068971
H           -5.30381565088660        4.71162885127440        2.50221627202806
H           -7.27060972795569        3.68212468975325        1.38431542983767
H           -2.67889075512421        0.83386769595615       -1.08680444924823
H           -0.54054698415406       -0.38052824239192       -1.14593578616598
H           -2.28789662560542       -3.57374212353133        1.08461472468420
H           -4.44250871469903       -2.34883877421555        1.15122400553694
H            0.54052428264468       -0.38263291002303        1.14522009766568
H            2.67887861534449        0.83186663393505        1.08835121903700
H            4.44252251516776       -2.34672166662435       -1.15549401225823
H            2.28788963709515       -3.57172220082157       -1.09121016297927
H            5.12710075855909       -2.23575813954761        1.31045865505071
H            7.17359950955528       -3.11171569087388        2.32064809289690
H            9.29946131194374       -1.85636382188452        2.12065191301353
H            9.31453844880623        0.31894234125239        0.91820321640341
H            7.27072301471603        3.68442269900711       -1.37793187512449
H            5.30400423396373        4.71582098556305       -2.49421482168974
H            3.14997179917457        3.49363394166229       -2.51773909251107
H            2.95800154536575        1.31747359408719       -1.42051023870281
