66
 energy: -109.545610298595 gnorm: 0.000100669509 xtb: 6.7.1 (edcfbbe)
C           -7.20431290665993       -2.25966975092926       -1.63316967603735
C           -8.40008705394120       -1.57623680158454       -1.54584813302144
C           -8.43338695217290       -0.33577899739052       -0.92689555848326
C           -7.28290358863491        0.20387975968429       -0.38202157097703
C           -6.07215156764327       -0.49947284069327       -0.43026801139293
C           -6.04834914559391       -1.72391965379732       -1.08617388252193
N           -4.92478584381669        0.07206129714621        0.13074757975323
C           -5.01943067581536        1.34071283446318        0.71110202299357
C           -3.94276073255180        1.95314654122901        1.34027734627749
C           -4.07216323569650        3.21112280636753        1.90904830769603
C           -5.28205471599756        3.87349048072791        1.87008516679033
C           -6.37626374114141        3.26109155130504        1.27778587778325
C           -6.25306854464535        2.00557531652027        0.71188458991863
O           -7.38936566458320        1.45166097517371        0.17953228948432
C           -3.69722869192244       -0.61484252782909        0.10566602924934
C           -2.60111852393019       -0.06675969521140       -0.55896605138835
C           -1.39305540953606       -0.73280308781946       -0.57720589718436
C           -1.25927639715870       -1.96604437884515        0.05996595583636
C           -2.36661999307189       -2.52317977782956        0.69944725280328
C           -3.56998056987838       -1.85214119511338        0.73572891238269
C            0.00583877842312       -2.73922174589604        0.02719327498684
O            0.00719895307678       -3.95550844053634        0.02933200708366
C            1.26911079230521       -1.96318549186520       -0.01167922148989
C            1.40709965122146       -0.73514413202947        0.63436722363302
C            2.61221048113562       -0.06402661496636        0.60475434073005
C            3.70016650239329       -0.60063636714299       -0.08233964100793
C            3.56906383586898       -1.83377309683947       -0.71983949406876
C            2.36964012789420       -2.51095886631712       -0.67050891658826
N            4.92309529711934        0.09348305451147       -0.12391296764013
C            6.08597742398928       -0.48124327320240        0.40088955348240
C            6.08052998104818       -1.70981242221844        1.04951972428553
C            7.25145224136128       -2.24924402844730        1.55980203357028
C            8.44443076199011       -1.56531848598984        1.44299885516447
C            8.46029644605857       -0.32062874760095        0.83194935276613
C            7.29488276326490        0.22256879075809        0.32351936818442
O            7.38544198956536        1.47413715789117       -0.23224142534268
C            6.23445895723551        2.03152305952129       -0.72815654483609
C            6.34215275144713        3.29110269419360       -1.28821545634975
C            5.23210888663095        3.90793225943648       -1.84532312526901
C            4.02149556828417        3.24582793274806       -1.85517106484722
C            3.90776267914962        1.98367829149518       -1.29229607211427
C            5.00129823507030        1.36635351963032       -0.69786291653515
H           -7.15618403186069       -3.21558395546013       -2.13135557982584
H           -9.30316275476345       -1.99109570473530       -1.96465759822442
H           -9.34528707351479        0.23578749508741       -0.86086173749869
H           -5.11817857788078       -2.26174921484931       -1.18015489260461
H           -2.99574118545941        1.43979311228024        1.39632229467079
H           -3.21667844486941        3.66362217830542        2.38650371268962
H           -5.38710073913072        4.85417478816159        2.30628165936539
H           -7.34175887140579        3.74017950026544        1.24946675579318
H           -2.71055692842473        0.87920575702929       -1.06867509427997
H           -0.55872642031732       -0.31143023113773       -1.11826957311228
H           -2.25639470474083       -3.48432080143152        1.17873463011613
H           -4.41901206898617       -2.27537758896042        1.25159507041823
H            0.57876516305460       -0.32214718362233        1.19095435207144
H            2.72537095815181        0.87735538849706        1.12204884105036
H            4.41181931731686       -2.24874482457171       -1.25243756036493
H            2.25675225237384       -3.46868896344193       -1.15593835977980
H            5.15328835176214       -2.24821634309157        1.16636922940198
H            7.21725407112008       -3.20840439596789        2.05287279196330
H            9.35896229031741       -1.98301704193608        1.83315159048208
H            9.36997905235213        0.25149195831331        0.74388169169529
H            7.30839694446840        3.76953949437643       -1.28374880256102
H            5.32513866056820        4.89183285999795       -2.27697957101631
H            3.15285258898010        3.70202894406508       -2.30454869439232
H            2.95925315857557        1.47118696023112       -1.32603298736418
