  52
  -79.3022006900000       0.382272981160495      !
 O         -1.9341344957       -0.4443948353        2.4579899706
 C         -2.7944876592        0.5984738903        2.0447771753
 C         -3.5700754727        0.2712407985        0.7914116751
 C         -4.9575132418        0.2603252650        0.7968478899
 C         -5.6712448122       -0.0402297984       -0.3505570802
 C         -4.9989974242       -0.3420816444       -1.5222932150
 C         -3.6159933219       -0.3379014940       -1.5404029165
 C         -2.8930365931       -0.0292016239       -0.3944343937
 C         -1.4126845070       -0.0226921820       -0.4406811738
 C         -0.7239928969        1.1958892979       -0.4802317049
 C         -1.4106303806        2.4374407439       -0.5237509117
 C         -0.7301807689        3.6160202176       -0.5349978961
 C          0.6801231783        3.6258012669       -0.5032386195
 C          1.3754168901        2.4566436426       -0.4753194523
 C          0.7036028776        1.2053637278       -0.4749048110
 C          1.4089563322       -0.0062041583       -0.4432401713
 C          2.8895810278        0.0002522374       -0.3995283359
 C          3.6132252926        0.2263435611       -1.5638725386
 C          4.9964074667        0.2234853092       -1.5456105763
 C          5.6673948951       -0.0029398493       -0.3562922185
 C          4.9525592185       -0.2209196567        0.8092232324
 C          3.5652720973       -0.2235376656        0.8038483440
 C          2.7842913231       -0.4547239431        2.0746504475
 O          1.9733913324        0.6467963699        2.4350315015
 C          0.7206601614       -1.2253631672       -0.4394034256
 C          1.4085890258       -2.4668983493       -0.4369271757
 C          0.7290343478       -3.6456232836       -0.4079849681
 C         -0.6811635535       -3.6549181164       -0.3764088362
 C         -1.3773902236       -2.4858750209       -0.3874663453
 C         -0.7069609078       -1.2351555914       -0.4327309265
 H         -1.4039425210       -0.6705800266        1.6813984202
 H         -2.2059706847        1.5115507314        1.8778311909
 H         -3.4781518467        0.7709926039        2.8778778637
 H         -5.4824091244        0.4890407211        1.7128077572
 H         -6.7502054616       -0.0425038020       -0.3275792652
 H         -5.5489252630       -0.5815883254       -2.4196047176
 H         -3.0812100151       -0.5708985183       -2.4501653590
 H         -2.4887349099        2.4234366196       -0.5505413835
 H         -1.2639292801        4.5539069502       -0.5676570576
 H          1.2016937685        4.5708564488       -0.5046464479
 H          2.4533498211        2.4573117356       -0.4530089253
 H          3.0795467595        0.4001875823       -2.4874293912
 H          5.5475719293        0.3987015712       -2.4570946207
 H          6.7463912494       -0.0059298871       -0.3339551733
 H          5.4761613324       -0.3891560238        1.7385274162
 H          3.4637547915       -0.6139486847        2.9137367182
 H          2.1544281457       -1.3474118992        1.9560459391
 H          1.4514414386        0.8569502298        1.6486514531
 H          2.4867947012       -2.4524789508       -0.4602223206
 H          1.2633852205       -4.5836700443       -0.4067745225
 H         -1.2022794337       -4.5997256249       -0.3434915857
 H         -2.4551773082       -2.4872439830       -0.3620042976
  52
  -79.3020055000000       0.310935629809954      !
 O         -2.0714308851       -0.6729437643        2.4603505402
 C         -2.8261400344        0.4577943890        2.0693887893
 C         -3.5888734646        0.2370262161        0.7859930934
 C         -4.9759966454        0.2371708717        0.7665479855
 C         -5.6695560678        0.0240203326       -0.4125855816
 C         -4.9773089729       -0.1995396249       -1.5902309961
 C         -3.5940212205       -0.2057880485       -1.5832396407
 C         -2.8916303904        0.0139698845       -0.4047241353
 C         -1.4101038442        0.0141621418       -0.4242088315
 C         -0.7147892697        1.2288775644       -0.4487552444
 C         -1.3959500195        2.4742883007       -0.4736732700
 C         -0.7096745063        3.6492386015       -0.4943576873
 C          0.7010957511        3.6508630151       -0.5013869496
 C          1.3905327359        2.4776674804       -0.4852359445
 C          0.7128963072        1.2304938403       -0.4520616675
 C          1.4113234681        0.0172992560       -0.4254600780
 C          2.8927434751        0.0219383018       -0.4078017442
 C          3.5939461763       -0.2296883824       -1.5807459061
 C          4.9771118426       -0.2158803709       -1.5912946889
 C          5.6706304765        0.0474163958       -0.4226243376
 C          4.9784923441        0.2906619274        0.7515429774
 C          3.5914600862        0.2827069861        0.7745563678
 C          2.8313063398        0.5366366361        2.0534096579
 O          2.0595575650       -0.5756456870        2.4638291305
 C          0.7157699236       -1.1998300213       -0.4112588794
 C          1.3962430602       -2.4454468776       -0.3662629987
 C          0.7092060555       -3.6195145779       -0.3363283800
 C         -0.7013468993       -3.6210960445       -0.3421801845
 C         -1.3904778803       -2.4484244084       -0.3751755114
 C         -0.7119445258       -1.2012467834       -0.4128971332
 H         -1.5566291781       -0.9274386599        1.6827969047
 H         -2.1554852407        1.3199710967        1.9494229807
 H         -3.5143287105        0.6594004741        2.8921276012
 H         -5.5159790115        0.4058640843        1.6866426886
 H         -6.7487724367        0.0295036108       -0.4101898473
 H         -5.5118183364       -0.3691997784       -2.5125239570
 H         -3.0437962504       -0.3775518672       -2.4973558130
 H         -2.4747850314        2.4655545684       -0.4782522036
 H         -1.2387761916        4.5901109201       -0.5101997418
 H          1.2278980082        4.5929411596       -0.5238173970
 H          2.4692684211        2.4720298639       -0.5001455427
 H          3.0426275022       -0.4322477497       -2.4878420574
 H          5.5105908253       -0.4110700145       -2.5090380274
 H          6.7498113101        0.0592162529       -0.4231098475
 H          5.5199950498        0.4887938081        1.6649521947
 H          2.1733293000        1.4061064730        1.9180760040
 H          3.5218165068        0.7426646759        2.8729035171
 H          1.5402233301       -0.8346331805        1.6905906913
 H          2.4742569508       -2.4380307573       -0.3545772159
 H          1.2377927211       -4.5600139804       -0.3037658307
 H         -1.2282511443       -4.5627212116       -0.3135415547
 H         -2.4685969067       -2.4429506932       -0.3692983512
  52
  -79.3019928200000       0.306791389029550      !
 O         -2.0146632895        0.6015352732        2.4399944129
 C         -2.8266142429       -0.4963123405        2.0731595769
 C         -3.5890352695       -0.2659036299        0.7911462715
 C         -4.9762931068       -0.2692390534        0.7752093977
 C         -5.6741729254       -0.0532844122       -0.4006699135
 C         -4.9861036927        0.1781613277       -1.5792069670
 C         -3.6029880533        0.1872454759       -1.5760735586
 C         -2.8958318519       -0.0378445134       -0.4011954183
 C         -1.4146816579       -0.0372260773       -0.4275457025
 C         -0.7167425376        1.1782584726       -0.4678834013
 C         -1.3938120939        2.4262700734       -0.4708121810
 C         -0.7040921054        3.5989146107       -0.4937100149
 C          0.7064129355        3.5972245758       -0.5099507516
 C          1.3927358149        2.4225760607       -0.4982736321
 C          0.7109822729        1.1763052978       -0.4753614572
 C          1.4067557628       -0.0391746687       -0.4323648029
 C          2.8883311661       -0.0415535094       -0.4072631308
 C          3.5983822242        0.0760194379       -1.5955318708
 C          4.9817039648        0.0631872249       -1.5927538448
 C          5.6658845953       -0.0650295427       -0.3962465712
 C          4.9643982295       -0.1770293523        0.7920453185
 C          3.5772586709       -0.1686896887        0.8021695147
 C          2.8040409524       -0.2755042867        2.0936537029
 O          2.1010515595        0.9117099050        2.4089000767
 C          0.7095429537       -1.2524828450       -0.4017219489
 C          1.3890061410       -2.4984818196       -0.3663298173
 C          0.7010090764       -3.6722606236       -0.3380017158
 C         -0.7096688485       -3.6722058449       -0.3531459215
 C         -1.3974445634       -2.4983852098       -0.3896847795
 C         -0.7181578752       -1.2518451200       -0.4059553788
 H         -1.4885958908        0.8138921321        1.6570516031
 H         -3.5176734452       -0.6495796927        2.9038467972
 H         -2.2001563644       -1.3929865424        1.9655581203
 H         -5.5134534613       -0.4425114406        1.6961368497
 H         -6.7533059047       -0.0611639703       -0.3947287211
 H         -5.5238015886        0.3511650615       -2.4989762283
 H         -3.0559124141        0.3647184791       -2.4909224027
 H         -2.4716371483        2.4223291349       -0.4514233608
 H         -1.2304322749        4.5411892692       -0.4958643778
 H          1.2353787635        4.5378492402       -0.5278108870
 H          2.4709384492        2.4143721675       -0.5019802954
 H          3.0546849105        0.1740894856       -2.5242901916
 H          5.5228093804        0.1534124861       -2.5223252582
 H          6.7449987815       -0.0757067429       -0.3867751257
 H          5.4977294669       -0.2723268374        1.7264527899
 H          3.4806509928       -0.4546675899        2.9308428134
 H          2.0946943100       -1.1116863709        2.0259324086
 H          1.6004222347        1.1406593858        1.6143123916
 H          2.4678911419       -2.4909868449       -0.3649303006
 H          1.2286392842       -4.6136499692       -0.3086966751
 H         -1.2378610314       -4.6137303992       -0.3396799518
 H         -2.4761113699       -2.4922091521       -0.4104240538
