  52
  -78.9665885749000       0.516523143472461      !
 O         -2.0770429575       -0.7151233173        2.4436642969
 C         -2.8262698553        0.4269523225        2.0757946857
 C         -3.5886137542        0.2366015760        0.7873057424
 C         -4.9757008851        0.2433880175        0.7665190317
 C         -5.6689486428        0.0581537909       -0.4175036123
 C         -4.9764526759       -0.1437464359       -1.5989093223
 C         -3.5932149491       -0.1563565946       -1.5907054909
 C         -2.8911056661        0.0354567888       -0.4071534623
 C         -1.4095731385        0.0294000873       -0.4251890787
 C         -0.7088068651        1.2412261428       -0.4235510927
 C         -1.3843636832        2.4899340491       -0.4229787731
 C         -0.6928183461        3.6619637021       -0.4183232988
 C          0.7179517612        3.6573953586       -0.4239449729
 C          1.4021170633        2.4810328436       -0.4317581785
 C          0.7188743757        1.2364955034       -0.4254344711
 C          1.4118397149        0.0198833930       -0.4236304333
 C          2.8932459763        0.0174932904       -0.4044379680
 C          3.5945669108       -0.2126061227       -1.5817240124
 C          4.9777909643       -0.2047957462       -1.5906354810
 C          5.6712333751        0.0307929628       -0.4160209672
 C          4.9789381239        0.2524467443        0.7623208138
 C          3.5918604031        0.2502438297        0.7838132611
 C          2.8314863844        0.4806875356        2.0669760618
 O          2.0543332848       -0.6364851265        2.4532021408
 C          0.7108347121       -1.1941377379       -0.4356622595
 C          1.3856815875       -2.4434700669       -0.4161661551
 C          0.6933688481       -3.6148080653       -0.4115556817
 C         -0.7171700278       -3.6099273837       -0.4188111161
 C         -1.4010137065       -2.4337364542       -0.4278492132
 C         -0.7168692345       -1.1891037106       -0.4387183050
 H         -1.5625555967       -0.9555519735        1.6614399542
 H         -2.1516380730        1.2884345978        1.9746088643
 H         -3.5144270942        0.6143350963        2.9019152161
 H         -5.5159044243        0.3951559409        1.6894270727
 H         -6.7481316347        0.0684354615       -0.4160427915
 H         -5.5107314883       -0.2916062244       -2.5250803468
 H         -3.0427890244       -0.3113659375       -2.5076908281
 H         -2.4632214692        2.4861466717       -0.4287891932
 H         -1.2176894488        4.6053295096       -0.4149228877
 H          1.2489858594        4.5973598283       -0.4260793488
 H          2.4808320336        2.4708617003       -0.4457338068
 H          3.0433156135       -0.3936009899       -2.4934086457
 H          5.5113701743       -0.3830741252       -2.5117552905
 H          6.7504560942        0.0377505086       -0.4152091628
 H          5.5203470209        0.4289267444        1.6802146183
 H          2.1775493879        1.3557546388        1.9492868540
 H          3.5220366533        0.6663635558        2.8912859373
 H          1.5346709393       -0.8768485688        1.6741920539
 H          2.4637047877       -2.4411454828       -0.4032789173
 H          1.2177087705       -4.5581496965       -0.3982319629
 H         -1.2483107086       -4.5495688337       -0.4104605181
 H         -2.4791031236       -2.4235423520       -0.4229068692
  52
  -78.9665260943000       0.483476856527539      !
 O         -1.9387233066       -0.4871945046        2.4462361226
 C         -2.7939623688        0.5679737695        2.0541728384
 C         -3.5696687143        0.2706100597        0.7934597387
 C         -4.9571464356        0.2658180078        0.7973163414
 C         -5.6709908902       -0.0073759438       -0.3568393784
 C         -4.9988508855       -0.2875841789       -1.5340002919
 C         -3.6158233909       -0.2892400130       -1.5506733021
 C         -2.8927159153       -0.0079144374       -0.3977737418
 C         -1.4123010372       -0.0070883876       -0.4424340442
 C         -0.7181243638        1.2089475388       -0.4557221353
 C         -1.3991552789        2.4542121007       -0.4738332395
 C         -0.7134296159        3.6296981771       -0.4596718883
 C          0.6968692953        3.6324725019       -0.4263427974
 C          1.3868967704        2.4598736297       -0.4222999694
 C          0.7094930132        1.2118924302       -0.4488092101
 C          1.4093864481       -0.0032307582       -0.4419023525
 C          2.8899777462       -0.0043472266       -0.3966247589
 C          3.6158674490        0.2428799250       -1.5552612877
 C          4.9990027401        0.2334230577       -1.5357182654
 C          5.6677018578       -0.0209294704       -0.3507638700
 C          4.9506556799       -0.2601111449        0.8092225146
 C          3.5633772470       -0.2563813328        0.8024447542
 C          2.7800153059       -0.5106791811        2.0673529424
 O          1.9736661039        0.5866669520        2.4499921032
 C          0.7156407190       -1.2190962142       -0.4643318986
 C          1.3980068500       -2.4634888150       -0.4872530881
 C          0.7131565871       -3.6394957685       -0.4837253084
 C         -0.6971016580       -3.6431138952       -0.4537226697
 C         -1.3880805783       -2.4709792642       -0.4409108760
 C         -0.7120161732       -1.2226107840       -0.4592547822
 H         -1.4087202506       -0.6994093372        1.6655829779
 H         -2.2011897755        1.4816997013        1.9070059843
 H         -3.4777363134        0.7260380423        2.8900466705
 H         -5.4819907884        0.4776133378        1.7173652909
 H         -6.7499748128       -0.0052829410       -0.3349636378
 H         -5.5488870470       -0.5057294796       -2.4366767898
 H         -3.0811174780       -0.5054904442       -2.4646064715
 H         -2.4772824713        2.4456184900       -0.5019602323
 H         -1.2429429116        4.5704529653       -0.4731520704
 H          1.2226626743        4.5749955627       -0.4074017831
 H          2.4647974987        2.4552290886       -0.3989320871
 H          3.0839571437        0.4384679564       -2.4754832878
 H          5.5519172236        0.4252543729       -2.4427863373
 H          6.7466496087       -0.0292366350       -0.3274452432
 H          5.4725086230       -0.4501681697        1.7352985094
 H          3.4578644868       -0.6905333879        2.9035717207
 H          2.1462927038       -1.3978413252        1.9294202331
 H          1.4535003991        0.8156243642        1.6676903328
 H          2.4762904659       -2.4534291678       -0.5091918316
 H          1.2433050652       -4.5797531367       -0.5016896695
 H         -1.2224728318       -4.5860527756       -0.4411555800
 H         -2.4658895504       -2.4680388472       -0.4165313089
