64
 energy: -96.806962761684 gnorm: 0.000024959989 xtb: 6.7.1 (edcfbbe)
C           -7.76185443820982        0.34541429117989       -0.26324418398341
C           -6.53120382563103        0.49450939705804        0.64972506201039
C           -6.95733138780017        0.99354041856747        2.04256797260105
C           -5.59047848497301        1.51558719456206        0.03907888757317
C           -6.03491808754025        2.81437930384449       -0.16765941244106
C           -5.21671047862767        3.79623927901431       -0.69441525362021
C           -3.90765402708598        3.48466821017828       -1.01333435444131
C           -3.44021472612762        2.20212763643186       -0.81871271175787
C           -4.27301502324453        1.20115880052062       -0.30977941263899
N           -3.77683132185918       -0.08192635607718       -0.13190146862510
C           -2.43469604173130       -0.35805984562542       -0.49762757222492
C           -2.08818911751146       -0.49031221767741       -1.83880543711208
C           -0.78024698822353       -0.75874916008104       -2.18771837326339
C            0.20370963302614       -0.87585933148415       -1.20779214687093
C            1.59596615934571       -1.18429751651446       -1.62690672221338
O            1.82641396207588       -1.88949884734185       -2.58996520031324
C            2.68623712783846       -0.59242897791118       -0.81685657967688
C            3.90738929560631       -1.26377244030809       -0.74885348282796
C            4.95993911619287       -0.74913326169774       -0.02322379966501
C            4.81599814118576        0.47662630908023        0.61833465755077
S            6.09990830188150        1.18841946244767        1.60166122038053
C            7.58031309339764        0.53366506325150        0.85813701221874
C            8.58635590635063        0.05930419357004        1.68675557371967
C            9.76532696524534       -0.40574497333477        1.13159306345089
C            9.93694595151827       -0.40092383449359       -0.24259548707668
C            8.93088042238624        0.08223587471201       -1.06406972079973
C            7.75395146348314        0.56068057518250       -0.51860114102131
C            3.60742878117969        1.16445372868203        0.54341282185611
C            2.54978048920508        0.63269852697191       -0.16337876927182
C           -0.15074904532608       -0.75770076785058        0.13480454496522
C           -1.46190881764318       -0.50395997393770        0.48673005807321
C           -4.55380290223010       -1.10117299881257        0.39998005486686
C           -4.02208056544346       -2.38891614003390        0.51473592178061
C           -4.76726031332163       -3.41962148433484        1.04726786187224
C           -6.06346276571507       -3.18595643222115        1.46912486594801
C           -6.59975180794241       -1.91920141350447        1.33292580974674
C           -5.87301214462082       -0.86383231775662        0.79869092675603
H           -8.26940477860096        1.29765606033168       -0.38972941738678
H           -7.45345126080197       -0.01237459961533       -1.24385724723603
H           -8.47087326722483       -0.36475108804400        0.15296876270450
H           -7.64106530940506        0.29262209654241        2.51337093133271
H           -7.45207873543671        1.95847212753197        1.97505252063796
H           -6.08207225118029        1.10065797660186        2.68077740016737
H           -7.05013746516601        3.07476063958034        0.09098534192311
H           -5.59604720735981        4.79537465503258       -0.84490810872488
H           -3.24563516384902        4.23925232737689       -1.41136972577072
H           -2.41377822846902        1.97144361081038       -1.05963274058894
H           -2.85106748330350       -0.38449021146950       -2.59574612420942
H           -0.49799674361078       -0.87726102730993       -3.22309296355957
H            4.00756941549371       -2.20784018696320       -1.26329286626107
H            5.89059948720891       -1.29259541450784        0.04356213554352
H            8.43961592728236        0.05746309653777        2.75606037136382
H           10.54861739046184       -0.77701437182618        1.77529953964109
H           10.85515587267634       -0.76972810879464       -0.67419738574676
H            9.06426230861591        0.09551168495960       -2.13545845408403
H            6.97191789178250        0.94744404887814       -1.15536018145732
H            3.51144401339499        2.11739359790160        1.04123090240729
H            1.62451982719838        1.18496265777969       -0.23508671648020
H            0.59720987327413       -0.88455772445858        0.90357956728741
H           -1.74498814544718       -0.41857542702177        1.52551677560102
H           -3.01616063652193       -2.58395587588284        0.17599387411529
H           -4.33331038506307       -4.40505438866061        1.12793670276276
H           -6.65597033424280       -3.98315561380726        1.89133387739749
H           -7.61750090761081       -1.75395764734044        1.65276056970753
