64
 energy: -96.806670074427 gnorm: 0.000069000505 xtb: 6.7.1 (edcfbbe)
C           -7.00956963347046       -0.33615716382311       -0.06888254353573
C           -5.73377339839734       -0.05100929846198        0.74420533561010
C           -6.07854053111287        0.12263566624542        2.23472706485302
C           -5.11109249068519        1.23688435128018        0.23967290954701
C           -5.83903581858346        2.41729432046725        0.30387124482533
C           -5.31680361801155        3.62632572717893       -0.11610639923424
C           -4.02358148299686        3.67052132771503       -0.60417891119419
C           -3.27812195300710        2.51296834074258       -0.67963093396747
C           -3.81232916785923        1.28573360200751       -0.27655745649258
N           -3.04057494073448        0.13608026478877       -0.36883517176132
C           -1.72016386504341        0.23159181474344       -0.87716885243699
C           -1.50276348340003        0.37271946765364       -2.24448154916638
C           -0.21453100319828        0.47483121983701       -2.72823746195427
C            0.87531043796774        0.41650837766851       -1.86081498867667
C            2.24239324636655        0.56755735722101       -2.42313198509394
O            2.44692673684878        1.23187262124659       -3.42019901763339
C            3.34285509240213       -0.11534596494830       -1.70162429056109
C            3.16402654729980       -1.33973642954571       -1.05804676367982
C            4.21923760983202       -1.94166258150396       -0.40470273124959
C            5.46605059839695       -1.32376404558334       -0.37588152333322
S            6.78086998476095       -2.15346141433932        0.46726174876148
C            7.78709012871455       -0.79828419752172        1.03527836921456
C            9.16666146640574       -0.90991145819068        0.94333742910478
C            9.96815419493269        0.10962058004693        1.42552380479986
C            9.39629057052278        1.23616119830716        1.99270018296651
C            8.01767930770122        1.33742205281509        2.08953025087385
C            7.20851064434890        0.31867604755008        1.62203338854001
C            5.66511570076107       -0.12358230356259       -1.04982093174577
C            4.60989160837027        0.46778018784027       -1.71053821486368
C            0.65136293127463        0.28558541278001       -0.49120696304112
C           -0.63737074257171        0.19605102140659       -0.00381339297404
C           -3.51217387584541       -1.09909685635939        0.04953950750630
C           -2.70939242335464       -2.23347807602056       -0.10245355846672
C           -3.14841160558834       -3.47442666168057        0.30812424923807
C           -4.40380086947449       -3.60832779681128        0.87260071383900
C           -5.20842989880537       -2.49169813134662        1.00258607873419
C           -4.79239010530346       -1.23103400020440        0.59679471604750
H           -7.71743682812406        0.48324966440474        0.01958990171299
H           -6.75765530440712       -0.46029066637354       -1.12047724170424
H           -7.49597255087895       -1.24418673449657        0.27640476145548
H           -5.17259513654509        0.32688750966971        2.80255632603992
H           -6.53785718080742       -0.77733460959838        2.63418765606555
H           -6.76763780459839        0.94983730590569        2.38038212696657
H           -6.84485572771166        2.39931190596005        0.69553540282283
H           -5.91163489304484        4.52475076199413       -0.05415731743904
H           -3.58964740241943        4.60589327191796       -0.92452000570184
H           -2.26592961014846        2.55970534134240       -1.05089203804328
H           -2.34898114466685        0.40925074085099       -2.91424751139808
H           -0.02829057495316        0.59306460076442       -3.78515078033182
H            2.20191017851473       -1.82964657303112       -1.08453005154020
H            4.08862444891073       -2.89053876431364        0.09306225220931
H            9.60127257248344       -1.79076395905897        0.49605580516578
H           11.04196852399030        0.02445797958956        1.35240122260326
H           10.02306487030932        2.03341038468167        2.36271940608108
H            7.56766638303493        2.20991965277816        2.53932887881849
H            6.13405259835957        0.39059351224222        1.70637372674136
H            6.64041422652876        0.33982180462314       -1.05778394956480
H            4.74882804989818        1.39721999197197       -2.24221061643244
H            1.48529997920011        0.28285155328287        0.19495119058983
H           -0.81829000727743        0.09978326051617        1.05659346847472
H           -1.73349532221585       -2.13941485122251       -0.55394551420924
H           -2.50907537630265       -4.33555526515022        0.18238220060774
H           -4.75830628989570       -4.57338424188512        1.20093454563982
H           -6.19101357660580       -2.61273715699405        1.43298580093402
