64
 energy: -96.729901128178 gnorm: 0.000132543110 xtb: 6.7.1 (edcfbbe)
C           -7.78980060699345        0.42353629489464       -0.45677049516265
C           -6.61504544800356        0.53332881764751        0.53371578073887
C           -7.12478005483381        0.98619687544792        1.91516264609381
C           -5.63768238724436        1.56750796456570        0.01554960021336
C           -6.05819380983000        2.87536797250077       -0.18115951129205
C           -5.20338363789733        3.85647339660978       -0.64918970154443
C           -3.88481391045625        3.53559919248152       -0.93181500851996
C           -3.43882612727279        2.24683217310043       -0.74646015532035
C           -4.30272715842485        1.24846201023275       -0.27502841897648
N           -3.82509001181159       -0.03252067264287       -0.10387024489632
C           -2.45801303562210       -0.30710390466667       -0.40335857667824
C           -2.07799683222962       -0.67984502599536       -1.69358323180606
C           -0.76153606118057       -0.94870881046749       -1.96937612332081
C            0.22949661596662       -0.83753648018683       -0.97072434182702
C            1.58841730084741       -1.18976445823377       -1.31828637615543
O            1.82373696242696       -1.88852701020733       -2.35001031159388
C            2.71348464213243       -0.74498817848718       -0.51333470016170
C            3.90901025404772       -1.49113055729417       -0.57102366041799
C            5.00645430078037       -1.12646788848507        0.16410545323758
C            4.96756703757251        0.03525210429311        0.93868893986133
S            6.34030326223683        0.52060664517185        1.94375812665145
C            7.72400696951819        0.32680254973568        0.85177391427721
C            8.96515884847885        0.06507595487901        1.42168601668394
C           10.07627660106863       -0.07018549595764        0.61174546320909
C            9.95529025505278        0.05384570670958       -0.76353526017315
C            8.71822803980573        0.32575020657256       -1.32532528577178
C            7.60070283317145        0.46969090531961       -0.52428996962850
C            3.81359881078898        0.81796715124107        0.96379802059985
C            2.70834702289755        0.44513352952341        0.23674786275623
C           -0.17802421834612       -0.49666788655374        0.33153600281075
C           -1.49900423580012       -0.23100622509275        0.60644531456503
C           -4.62639967264953       -1.05640035804554        0.35382250172675
C           -4.08608195005791       -2.34219181346307        0.49608719970707
C           -4.85876463068274       -3.38496931817722        0.95408676641928
C           -6.18835067271536       -3.16727873065625        1.28005589217431
C           -6.72646195604039       -1.90149496950064        1.13703554750410
C           -5.97299755358488       -0.83080829812048        0.67653153893699
H           -8.28713025423896        1.38187446364154       -0.57539602183137
H           -7.42475558770907        0.10252607798712       -1.43045889850634
H           -8.52234445325983       -0.29939717743552       -0.10956475321040
H           -7.84457203030934        0.27685280802191        2.31342962457474
H           -7.60446257946186        1.95864174261086        1.85075303929862
H           -6.29199333679032        1.05901842057092        2.61202906116861
H           -7.08104354149328        3.14324813883862        0.03545592760182
H           -5.56363259949030        4.86368096828058       -0.79128469449326
H           -3.20517682193163        4.29050130691720       -1.29649866546049
H           -2.41323949442850        1.99463585203529       -0.96523942804208
H           -2.83082524134379       -0.75533220977758       -2.46486982635268
H           -0.45028071160803       -1.24760192332979       -2.95854282830062
H            3.92485103609795       -2.37986226190221       -1.18307779313015
H            5.90181742452029       -1.73111237933545        0.14752103534846
H            9.04617887669284       -0.03394782520152        2.49355288675886
H           11.03863532162720       -0.27794893729338        1.05522220265699
H           10.82337119240949       -0.05761590526636       -1.39549373447569
H            8.62007144677757        0.43294464750907       -2.39529650926370
H            6.63988039206333        0.69261601257046       -0.96362928515735
H            3.80589606598471        1.72873119726020        1.54456037075128
H            1.84523330791988        1.09278198507733        0.21775133787383
H            0.54080798136756       -0.48597544741527        1.13625173168983
H           -1.80961862774539        0.02389071196857        1.60989816322313
H           -3.05194875746487       -2.51092013885426        0.24097229605641
H           -4.42474149138747       -4.36766339977961        1.05684583605093
H           -6.80255912066876       -3.97751033276988        1.64159559380902
H           -7.76396518998042       -1.75035214594655        1.39323011346563
