  64
        -96.72492710
 C         -7.7416609824        0.6662554995       -0.6413327363
 C         -6.6060941543        0.6786741143        0.3995743206
 C         -7.1467368033        1.1258562397        1.7712678359
 C         -5.5477040033        1.6646745283       -0.0477804885
 C         -5.8810614298        2.9999562132       -0.2264362861
 C         -4.9513583597        3.9377847398       -0.6369749376
 C         -3.6453517812        3.5430335354       -0.8829080073
 C         -3.2847600190        2.2258397540       -0.7135258633
 C         -4.2228609541        1.2722750517       -0.2928630101
 N         -3.8283490107       -0.0374105166       -0.1304066836
 C         -2.4693303400       -0.3850247896       -0.3875132911
 C         -2.0845736670       -0.8439259814       -1.6487360134
 C         -0.7735295735       -1.1678007830       -1.8887061391
 C          0.2071858484       -1.0225227672       -0.8854097277
 C          1.5682397241       -1.4171672360       -1.2002835206
 O          1.7925181145       -2.2072188115       -2.1576179029
 C          2.6867358022       -0.8901544469       -0.4400959310
 C          3.9064301990       -1.6023278083       -0.4777171593
 C          5.0057240061       -1.1602893912        0.2074862202
 C          4.9452052838        0.0458403993        0.9140481008
 S          6.3264001518        0.6301796731        1.8485582439
 C          7.6603746211        0.5566156136        0.6844162271
 C          8.9536650025        0.4760554447        1.1915167990
 C         10.0284678095        0.4382878329        0.3248093746
 C          9.8207848857        0.4798893664       -1.0454987134
 C          8.5313002371        0.5689067356       -1.5451089769
 C          7.4480999006        0.6126058684       -0.6874601943
 C          3.7660465487        0.7932281720        0.9184260904
 C          2.6609795488        0.3445884110        0.2378367380
 C         -0.2074389799       -0.6061026523        0.3918729046
 C         -1.5231907461       -0.2869547636        0.6331954083
 C         -4.7060095184       -1.0205567895        0.2709082439
 C         -4.2436325208       -2.3357788052        0.4215177266
 C         -5.0958435419       -3.3414362829        0.8165896792
 C         -6.4286029462       -3.0564055623        1.0709160920
 C         -6.8878147226       -1.7598124102        0.9282105795
 C         -6.0526269708       -0.7244923327        0.5325466869
 H         -8.1697788601        1.6575449658       -0.7589167281
 H         -7.3568200264        0.3413093282       -1.6060260935
 H         -8.5342241045       -0.0130700491       -0.3412587777
 H         -7.9166051981        0.4455914636        2.1239186410
 H         -7.5736118298        2.1228871688        1.7120958671
 H         -6.3396523563        1.1397782270        2.5011428652
 H         -6.8937044102        3.3245025546       -0.0418929079
 H         -5.2445105792        4.9682286914       -0.7655103944
 H         -2.9092438159        4.2625476968       -1.2071704825
 H         -2.2700526214        1.9156854261       -0.9066339564
 H         -2.8293256414       -0.9386838630       -2.4257449221
 H         -0.4574048047       -1.5314919494       -2.8542396157
 H          3.9350259031       -2.5246766115       -1.0374649793
 H          5.9214014517       -1.7341198717        0.2067680966
 H          9.1024563250        0.4405316582        2.2600599927
 H         11.0313791988        0.3721153315        0.7195081860
 H         10.6619120150        0.4465488945       -1.7219242688
 H          8.3644781973        0.6108682034       -2.6112002172
 H          6.4452532460        0.6937948687       -1.0793569752
 H          3.7422788497        1.7379023763        1.4420391094
 H          1.7798579900        0.9664324240        0.1952752202
 H          0.5009714502       -0.5764858339        1.2056272129
 H         -1.8400152100        0.0296399783        1.6169997445
 H         -3.2063631799       -2.5554207808        0.2244038497
 H         -4.7217083160       -4.3476254373        0.9267552320
 H         -7.1055460633       -3.8378310457        1.3800571509
 H         -7.9275952327       -1.5555048269        1.1332235816
